data_graphite_ortho

_audit_creation_method RASPA-1.0
_audit_creation_date 2012-1-21
_audit_author_name 'David Dubbeldam'

_cell_length_a    39.36
_cell_length_b    42.6
_cell_length_c    42.6
_cell_angle_alpha 90
_cell_angle_beta  90
_cell_angle_gamma 90
_cell_volume      71429

_symmetry_cell_setting          triclinic
_symmetry_space_group_name_Hall 'P 1'
_symmetry_space_group_name_H-M  'P 1'
_symmetry_Int_Tables_number     1

_symmetry_equiv_pos_as_xyz 'x,y,z'

loop_
_atom_site_label
_atom_site_type_symbol
_atom_site_fract_x
_atom_site_fract_y
_atom_site_fract_z
_atom_site_charge
C1       C     0            0.016667     0            0
C2       C     0.03125      0.066667     0            0
C3       C     0            0.083333     0            0
C4       C     0.03125      0.033333     0            0
C1       C     0            0.016667     0.333333     0
C2       C     0.03125      0.066667     0.333333     0
C3       C     0            0.083333     0.333333     0
C4       C     0.03125      0.033333     0.333333     0
C1       C     0            0.016667     0.666667     0
C2       C     0.03125      0.066667     0.666667     0
C3       C     0            0.083333     0.666667     0
C4       C     0.03125      0.033333     0.666667     0
C1       C     0            0.116667     0            0
C2       C     0.03125      0.166667     0            0
C3       C     0            0.183333     0            0
C4       C     0.03125      0.133333     0            0
C1       C     0            0.116667     0.333333     0
C2       C     0.03125      0.166667     0.333333     0
C3       C     0            0.183333     0.333333     0
C4       C     0.03125      0.133333     0.333333     0
C1       C     0            0.116667     0.666667     0
C2       C     0.03125      0.166667     0.666667     0
C3       C     0            0.183333     0.666667     0
C4       C     0.03125      0.133333     0.666667     0
C1       C     0            0.216667     0            0
C2       C     0.03125      0.266667     0            0
C3       C     0            0.283333     0            0
C4       C     0.03125      0.233333     0            0
C1       C     0            0.216667     0.333333     0
C2       C     0.03125      0.266667     0.333333     0
C3       C     0            0.283333     0.333333     0
C4       C     0.03125      0.233333     0.333333     0
C1       C     0            0.216667     0.666667     0
C2       C     0.03125      0.266667     0.666667     0
C3       C     0            0.283333     0.666667     0
C4       C     0.03125      0.233333     0.666667     0
C1       C     0            0.316667     0            0
C2       C     0.03125      0.366667     0            0
C3       C     0            0.383333     0            0
C4       C     0.03125      0.333333     0            0
C1       C     0            0.316667     0.333333     0
C2       C     0.03125      0.366667     0.333333     0
C3       C     0            0.383333     0.333333     0
C4       C     0.03125      0.333333     0.333333     0
C1       C     0            0.316667     0.666667     0
C2       C     0.03125      0.366667     0.666667     0
C3       C     0            0.383333     0.666667     0
C4       C     0.03125      0.333333     0.666667     0
C1       C     0            0.416667     0            0
C2       C     0.03125      0.466667     0            0
C3       C     0            0.483333     0            0
C4       C     0.03125      0.433333     0            0
C1       C     0            0.416667     0.333333     0
C2       C     0.03125      0.466667     0.333333     0
C3       C     0            0.483333     0.333333     0
C4       C     0.03125      0.433333     0.333333     0
C1       C     0            0.416667     0.666667     0
C2       C     0.03125      0.466667     0.666667     0
C3       C     0            0.483333     0.666667     0
C4       C     0.03125      0.433333     0.666667     0
C1       C     0            0.516667     0            0
C2       C     0.03125      0.566667     0            0
C3       C     0            0.583333     0            0
C4       C     0.03125      0.533333     0            0
C1       C     0            0.516667     0.333333     0
C2       C     0.03125      0.566667     0.333333     0
C3       C     0            0.583333     0.333333     0
C4       C     0.03125      0.533333     0.333333     0
C1       C     0            0.516667     0.666667     0
C2       C     0.03125      0.566667     0.666667     0
C3       C     0            0.583333     0.666667     0
C4       C     0.03125      0.533333     0.666667     0
C1       C     0            0.616667     0            0
C2       C     0.03125      0.666667     0            0
C3       C     0            0.683333     0            0
C4       C     0.03125      0.633333     0            0
C1       C     0            0.616667     0.333333     0
C2       C     0.03125      0.666667     0.333333     0
C3       C     0            0.683333     0.333333     0
C4       C     0.03125      0.633333     0.333333     0
C1       C     0            0.616667     0.666667     0
C2       C     0.03125      0.666667     0.666667     0
C3       C     0            0.683333     0.666667     0
C4       C     0.03125      0.633333     0.666667     0
C1       C     0            0.716667     0            0
C2       C     0.03125      0.766667     0            0
C3       C     0            0.783333     0            0
C4       C     0.03125      0.733333     0            0
C1       C     0            0.716667     0.333333     0
C2       C     0.03125      0.766667     0.333333     0
C3       C     0            0.783333     0.333333     0
C4       C     0.03125      0.733333     0.333333     0
C1       C     0            0.716667     0.666667     0
C2       C     0.03125      0.766667     0.666667     0
C3       C     0            0.783333     0.666667     0
C4       C     0.03125      0.733333     0.666667     0
C1       C     0            0.816667     0            0
C2       C     0.03125      0.866667     0            0
C3       C     0            0.883333     0            0
C4       C     0.03125      0.833333     0            0
C1       C     0            0.816667     0.333333     0
C2       C     0.03125      0.866667     0.333333     0
C3       C     0            0.883333     0.333333     0
C4       C     0.03125      0.833333     0.333333     0
C1       C     0            0.816667     0.666667     0
C2       C     0.03125      0.866667     0.666667     0
C3       C     0            0.883333     0.666667     0
C4       C     0.03125      0.833333     0.666667     0
C1       C     0            0.916667     0            0
C2       C     0.03125      0.966667     0            0
C3       C     0            0.983333     0            0
C4       C     0.03125      0.933333     0            0
C1       C     0            0.916667     0.333333     0
C2       C     0.03125      0.966667     0.333333     0
C3       C     0            0.983333     0.333333     0
C4       C     0.03125      0.933333     0.333333     0
C1       C     0            0.916667     0.666667     0
C2       C     0.03125      0.966667     0.666667     0
C3       C     0            0.983333     0.666667     0
C4       C     0.03125      0.933333     0.666667     0
C1       C     0.0625       0.016667     0            0
C2       C     0.09375      0.066667     0            0
C3       C     0.0625       0.083333     0            0
C4       C     0.09375      0.033333     0            0
C1       C     0.0625       0.016667     0.333333     0
C2       C     0.09375      0.066667     0.333333     0
C3       C     0.0625       0.083333     0.333333     0
C4       C     0.09375      0.033333     0.333333     0
C1       C     0.0625       0.016667     0.666667     0
C2       C     0.09375      0.066667     0.666667     0
C3       C     0.0625       0.083333     0.666667     0
C4       C     0.09375      0.033333     0.666667     0
C1       C     0.0625       0.116667     0            0
C2       C     0.09375      0.166667     0            0
C3       C     0.0625       0.183333     0            0
C4       C     0.09375      0.133333     0            0
C1       C     0.0625       0.116667     0.333333     0
C2       C     0.09375      0.166667     0.333333     0
C3       C     0.0625       0.183333     0.333333     0
C4       C     0.09375      0.133333     0.333333     0
C1       C     0.0625       0.116667     0.666667     0
C2       C     0.09375      0.166667     0.666667     0
C3       C     0.0625       0.183333     0.666667     0
C4       C     0.09375      0.133333     0.666667     0
C1       C     0.0625       0.216667     0            0
C2       C     0.09375      0.266667     0            0
C3       C     0.0625       0.283333     0            0
C4       C     0.09375      0.233333     0            0
C1       C     0.0625       0.216667     0.333333     0
C2       C     0.09375      0.266667     0.333333     0
C3       C     0.0625       0.283333     0.333333     0
C4       C     0.09375      0.233333     0.333333     0
C1       C     0.0625       0.216667     0.666667     0
C2       C     0.09375      0.266667     0.666667     0
C3       C     0.0625       0.283333     0.666667     0
C4       C     0.09375      0.233333     0.666667     0
C1       C     0.0625       0.316667     0            0
C2       C     0.09375      0.366667     0            0
C3       C     0.0625       0.383333     0            0
C4       C     0.09375      0.333333     0            0
C1       C     0.0625       0.316667     0.333333     0
C2       C     0.09375      0.366667     0.333333     0
C3       C     0.0625       0.383333     0.333333     0
C4       C     0.09375      0.333333     0.333333     0
C1       C     0.0625       0.316667     0.666667     0
C2       C     0.09375      0.366667     0.666667     0
C3       C     0.0625       0.383333     0.666667     0
C4       C     0.09375      0.333333     0.666667     0
C1       C     0.0625       0.416667     0            0
C2       C     0.09375      0.466667     0            0
C3       C     0.0625       0.483333     0            0
C4       C     0.09375      0.433333     0            0
C1       C     0.0625       0.416667     0.333333     0
C2       C     0.09375      0.466667     0.333333     0
C3       C     0.0625       0.483333     0.333333     0
C4       C     0.09375      0.433333     0.333333     0
C1       C     0.0625       0.416667     0.666667     0
C2       C     0.09375      0.466667     0.666667     0
C3       C     0.0625       0.483333     0.666667     0
C4       C     0.09375      0.433333     0.666667     0
C1       C     0.0625       0.516667     0            0
C2       C     0.09375      0.566667     0            0
C3       C     0.0625       0.583333     0            0
C4       C     0.09375      0.533333     0            0
C1       C     0.0625       0.516667     0.333333     0
C2       C     0.09375      0.566667     0.333333     0
C3       C     0.0625       0.583333     0.333333     0
C4       C     0.09375      0.533333     0.333333     0
C1       C     0.0625       0.516667     0.666667     0
C2       C     0.09375      0.566667     0.666667     0
C3       C     0.0625       0.583333     0.666667     0
C4       C     0.09375      0.533333     0.666667     0
C1       C     0.0625       0.616667     0            0
C2       C     0.09375      0.666667     0            0
C3       C     0.0625       0.683333     0            0
C4       C     0.09375      0.633333     0            0
C1       C     0.0625       0.616667     0.333333     0
C2       C     0.09375      0.666667     0.333333     0
C3       C     0.0625       0.683333     0.333333     0
C4       C     0.09375      0.633333     0.333333     0
C1       C     0.0625       0.616667     0.666667     0
C2       C     0.09375      0.666667     0.666667     0
C3       C     0.0625       0.683333     0.666667     0
C4       C     0.09375      0.633333     0.666667     0
C1       C     0.0625       0.716667     0            0
C2       C     0.09375      0.766667     0            0
C3       C     0.0625       0.783333     0            0
C4       C     0.09375      0.733333     0            0
C1       C     0.0625       0.716667     0.333333     0
C2       C     0.09375      0.766667     0.333333     0
C3       C     0.0625       0.783333     0.333333     0
C4       C     0.09375      0.733333     0.333333     0
C1       C     0.0625       0.716667     0.666667     0
C2       C     0.09375      0.766667     0.666667     0
C3       C     0.0625       0.783333     0.666667     0
C4       C     0.09375      0.733333     0.666667     0
C1       C     0.0625       0.816667     0            0
C2       C     0.09375      0.866667     0            0
C3       C     0.0625       0.883333     0            0
C4       C     0.09375      0.833333     0            0
C1       C     0.0625       0.816667     0.333333     0
C2       C     0.09375      0.866667     0.333333     0
C3       C     0.0625       0.883333     0.333333     0
C4       C     0.09375      0.833333     0.333333     0
C1       C     0.0625       0.816667     0.666667     0
C2       C     0.09375      0.866667     0.666667     0
C3       C     0.0625       0.883333     0.666667     0
C4       C     0.09375      0.833333     0.666667     0
C1       C     0.0625       0.916667     0            0
C2       C     0.09375      0.966667     0            0
C3       C     0.0625       0.983333     0            0
C4       C     0.09375      0.933333     0            0
C1       C     0.0625       0.916667     0.333333     0
C2       C     0.09375      0.966667     0.333333     0
C3       C     0.0625       0.983333     0.333333     0
C4       C     0.09375      0.933333     0.333333     0
C1       C     0.0625       0.916667     0.666667     0
C2       C     0.09375      0.966667     0.666667     0
C3       C     0.0625       0.983333     0.666667     0
C4       C     0.09375      0.933333     0.666667     0
C1       C     0.125        0.016667     0            0
C2       C     0.15625      0.066667     0            0
C3       C     0.125        0.083333     0            0
C4       C     0.15625      0.033333     0            0
C1       C     0.125        0.016667     0.333333     0
C2       C     0.15625      0.066667     0.333333     0
C3       C     0.125        0.083333     0.333333     0
C4       C     0.15625      0.033333     0.333333     0
C1       C     0.125        0.016667     0.666667     0
C2       C     0.15625      0.066667     0.666667     0
C3       C     0.125        0.083333     0.666667     0
C4       C     0.15625      0.033333     0.666667     0
C1       C     0.125        0.116667     0            0
C2       C     0.15625      0.166667     0            0
C3       C     0.125        0.183333     0            0
C4       C     0.15625      0.133333     0            0
C1       C     0.125        0.116667     0.333333     0
C2       C     0.15625      0.166667     0.333333     0
C3       C     0.125        0.183333     0.333333     0
C4       C     0.15625      0.133333     0.333333     0
C1       C     0.125        0.116667     0.666667     0
C2       C     0.15625      0.166667     0.666667     0
C3       C     0.125        0.183333     0.666667     0
C4       C     0.15625      0.133333     0.666667     0
C1       C     0.125        0.216667     0            0
C2       C     0.15625      0.266667     0            0
C3       C     0.125        0.283333     0            0
C4       C     0.15625      0.233333     0            0
C1       C     0.125        0.216667     0.333333     0
C2       C     0.15625      0.266667     0.333333     0
C3       C     0.125        0.283333     0.333333     0
C4       C     0.15625      0.233333     0.333333     0
C1       C     0.125        0.216667     0.666667     0
C2       C     0.15625      0.266667     0.666667     0
C3       C     0.125        0.283333     0.666667     0
C4       C     0.15625      0.233333     0.666667     0
C1       C     0.125        0.316667     0            0
C2       C     0.15625      0.366667     0            0
C3       C     0.125        0.383333     0            0
C4       C     0.15625      0.333333     0            0
C1       C     0.125        0.316667     0.333333     0
C2       C     0.15625      0.366667     0.333333     0
C3       C     0.125        0.383333     0.333333     0
C4       C     0.15625      0.333333     0.333333     0
C1       C     0.125        0.316667     0.666667     0
C2       C     0.15625      0.366667     0.666667     0
C3       C     0.125        0.383333     0.666667     0
C4       C     0.15625      0.333333     0.666667     0
C1       C     0.125        0.416667     0            0
C2       C     0.15625      0.466667     0            0
C3       C     0.125        0.483333     0            0
C4       C     0.15625      0.433333     0            0
C1       C     0.125        0.416667     0.333333     0
C2       C     0.15625      0.466667     0.333333     0
C3       C     0.125        0.483333     0.333333     0
C4       C     0.15625      0.433333     0.333333     0
C1       C     0.125        0.416667     0.666667     0
C2       C     0.15625      0.466667     0.666667     0
C3       C     0.125        0.483333     0.666667     0
C4       C     0.15625      0.433333     0.666667     0
C1       C     0.125        0.516667     0            0
C2       C     0.15625      0.566667     0            0
C3       C     0.125        0.583333     0            0
C4       C     0.15625      0.533333     0            0
C1       C     0.125        0.516667     0.333333     0
C2       C     0.15625      0.566667     0.333333     0
C3       C     0.125        0.583333     0.333333     0
C4       C     0.15625      0.533333     0.333333     0
C1       C     0.125        0.516667     0.666667     0
C2       C     0.15625      0.566667     0.666667     0
C3       C     0.125        0.583333     0.666667     0
C4       C     0.15625      0.533333     0.666667     0
C1       C     0.125        0.616667     0            0
C2       C     0.15625      0.666667     0            0
C3       C     0.125        0.683333     0            0
C4       C     0.15625      0.633333     0            0
C1       C     0.125        0.616667     0.333333     0
C2       C     0.15625      0.666667     0.333333     0
C3       C     0.125        0.683333     0.333333     0
C4       C     0.15625      0.633333     0.333333     0
C1       C     0.125        0.616667     0.666667     0
C2       C     0.15625      0.666667     0.666667     0
C3       C     0.125        0.683333     0.666667     0
C4       C     0.15625      0.633333     0.666667     0
C1       C     0.125        0.716667     0            0
C2       C     0.15625      0.766667     0            0
C3       C     0.125        0.783333     0            0
C4       C     0.15625      0.733333     0            0
C1       C     0.125        0.716667     0.333333     0
C2       C     0.15625      0.766667     0.333333     0
C3       C     0.125        0.783333     0.333333     0
C4       C     0.15625      0.733333     0.333333     0
C1       C     0.125        0.716667     0.666667     0
C2       C     0.15625      0.766667     0.666667     0
C3       C     0.125        0.783333     0.666667     0
C4       C     0.15625      0.733333     0.666667     0
C1       C     0.125        0.816667     0            0
C2       C     0.15625      0.866667     0            0
C3       C     0.125        0.883333     0            0
C4       C     0.15625      0.833333     0            0
C1       C     0.125        0.816667     0.333333     0
C2       C     0.15625      0.866667     0.333333     0
C3       C     0.125        0.883333     0.333333     0
C4       C     0.15625      0.833333     0.333333     0
C1       C     0.125        0.816667     0.666667     0
C2       C     0.15625      0.866667     0.666667     0
C3       C     0.125        0.883333     0.666667     0
C4       C     0.15625      0.833333     0.666667     0
C1       C     0.125        0.916667     0            0
C2       C     0.15625      0.966667     0            0
C3       C     0.125        0.983333     0            0
C4       C     0.15625      0.933333     0            0
C1       C     0.125        0.916667     0.333333     0
C2       C     0.15625      0.966667     0.333333     0
C3       C     0.125        0.983333     0.333333     0
C4       C     0.15625      0.933333     0.333333     0
C1       C     0.125        0.916667     0.666667     0
C2       C     0.15625      0.966667     0.666667     0
C3       C     0.125        0.983333     0.666667     0
C4       C     0.15625      0.933333     0.666667     0
C1       C     0.1875       0.016667     0            0
C2       C     0.21875      0.066667     0            0
C3       C     0.1875       0.083333     0            0
C4       C     0.21875      0.033333     0            0
C1       C     0.1875       0.016667     0.333333     0
C2       C     0.21875      0.066667     0.333333     0
C3       C     0.1875       0.083333     0.333333     0
C4       C     0.21875      0.033333     0.333333     0
C1       C     0.1875       0.016667     0.666667     0
C2       C     0.21875      0.066667     0.666667     0
C3       C     0.1875       0.083333     0.666667     0
C4       C     0.21875      0.033333     0.666667     0
C1       C     0.1875       0.116667     0            0
C2       C     0.21875      0.166667     0            0
C3       C     0.1875       0.183333     0            0
C4       C     0.21875      0.133333     0            0
C1       C     0.1875       0.116667     0.333333     0
C2       C     0.21875      0.166667     0.333333     0
C3       C     0.1875       0.183333     0.333333     0
C4       C     0.21875      0.133333     0.333333     0
C1       C     0.1875       0.116667     0.666667     0
C2       C     0.21875      0.166667     0.666667     0
C3       C     0.1875       0.183333     0.666667     0
C4       C     0.21875      0.133333     0.666667     0
C1       C     0.1875       0.216667     0            0
C2       C     0.21875      0.266667     0            0
C3       C     0.1875       0.283333     0            0
C4       C     0.21875      0.233333     0            0
C1       C     0.1875       0.216667     0.333333     0
C2       C     0.21875      0.266667     0.333333     0
C3       C     0.1875       0.283333     0.333333     0
C4       C     0.21875      0.233333     0.333333     0
C1       C     0.1875       0.216667     0.666667     0
C2       C     0.21875      0.266667     0.666667     0
C3       C     0.1875       0.283333     0.666667     0
C4       C     0.21875      0.233333     0.666667     0
C1       C     0.1875       0.316667     0            0
C2       C     0.21875      0.366667     0            0
C3       C     0.1875       0.383333     0            0
C4       C     0.21875      0.333333     0            0
C1       C     0.1875       0.316667     0.333333     0
C2       C     0.21875      0.366667     0.333333     0
C3       C     0.1875       0.383333     0.333333     0
C4       C     0.21875      0.333333     0.333333     0
C1       C     0.1875       0.316667     0.666667     0
C2       C     0.21875      0.366667     0.666667     0
C3       C     0.1875       0.383333     0.666667     0
C4       C     0.21875      0.333333     0.666667     0
C1       C     0.1875       0.416667     0            0
C2       C     0.21875      0.466667     0            0
C3       C     0.1875       0.483333     0            0
C4       C     0.21875      0.433333     0            0
C1       C     0.1875       0.416667     0.333333     0
C2       C     0.21875      0.466667     0.333333     0
C3       C     0.1875       0.483333     0.333333     0
C4       C     0.21875      0.433333     0.333333     0
C1       C     0.1875       0.416667     0.666667     0
C2       C     0.21875      0.466667     0.666667     0
C3       C     0.1875       0.483333     0.666667     0
C4       C     0.21875      0.433333     0.666667     0
C1       C     0.1875       0.516667     0            0
C2       C     0.21875      0.566667     0            0
C3       C     0.1875       0.583333     0            0
C4       C     0.21875      0.533333     0            0
C1       C     0.1875       0.516667     0.333333     0
C2       C     0.21875      0.566667     0.333333     0
C3       C     0.1875       0.583333     0.333333     0
C4       C     0.21875      0.533333     0.333333     0
C1       C     0.1875       0.516667     0.666667     0
C2       C     0.21875      0.566667     0.666667     0
C3       C     0.1875       0.583333     0.666667     0
C4       C     0.21875      0.533333     0.666667     0
C1       C     0.1875       0.616667     0            0
C2       C     0.21875      0.666667     0            0
C3       C     0.1875       0.683333     0            0
C4       C     0.21875      0.633333     0            0
C1       C     0.1875       0.616667     0.333333     0
C2       C     0.21875      0.666667     0.333333     0
C3       C     0.1875       0.683333     0.333333     0
C4       C     0.21875      0.633333     0.333333     0
C1       C     0.1875       0.616667     0.666667     0
C2       C     0.21875      0.666667     0.666667     0
C3       C     0.1875       0.683333     0.666667     0
C4       C     0.21875      0.633333     0.666667     0
C1       C     0.1875       0.716667     0            0
C2       C     0.21875      0.766667     0            0
C3       C     0.1875       0.783333     0            0
C4       C     0.21875      0.733333     0            0
C1       C     0.1875       0.716667     0.333333     0
C2       C     0.21875      0.766667     0.333333     0
C3       C     0.1875       0.783333     0.333333     0
C4       C     0.21875      0.733333     0.333333     0
C1       C     0.1875       0.716667     0.666667     0
C2       C     0.21875      0.766667     0.666667     0
C3       C     0.1875       0.783333     0.666667     0
C4       C     0.21875      0.733333     0.666667     0
C1       C     0.1875       0.816667     0            0
C2       C     0.21875      0.866667     0            0
C3       C     0.1875       0.883333     0            0
C4       C     0.21875      0.833333     0            0
C1       C     0.1875       0.816667     0.333333     0
C2       C     0.21875      0.866667     0.333333     0
C3       C     0.1875       0.883333     0.333333     0
C4       C     0.21875      0.833333     0.333333     0
C1       C     0.1875       0.816667     0.666667     0
C2       C     0.21875      0.866667     0.666667     0
C3       C     0.1875       0.883333     0.666667     0
C4       C     0.21875      0.833333     0.666667     0
C1       C     0.1875       0.916667     0            0
C2       C     0.21875      0.966667     0            0
C3       C     0.1875       0.983333     0            0
C4       C     0.21875      0.933333     0            0
C1       C     0.1875       0.916667     0.333333     0
C2       C     0.21875      0.966667     0.333333     0
C3       C     0.1875       0.983333     0.333333     0
C4       C     0.21875      0.933333     0.333333     0
C1       C     0.1875       0.916667     0.666667     0
C2       C     0.21875      0.966667     0.666667     0
C3       C     0.1875       0.983333     0.666667     0
C4       C     0.21875      0.933333     0.666667     0
C1       C     0.25         0.016667     0            0
C2       C     0.28125      0.066667     0            0
C3       C     0.25         0.083333     0            0
C4       C     0.28125      0.033333     0            0
C1       C     0.25         0.016667     0.333333     0
C2       C     0.28125      0.066667     0.333333     0
C3       C     0.25         0.083333     0.333333     0
C4       C     0.28125      0.033333     0.333333     0
C1       C     0.25         0.016667     0.666667     0
C2       C     0.28125      0.066667     0.666667     0
C3       C     0.25         0.083333     0.666667     0
C4       C     0.28125      0.033333     0.666667     0
C1       C     0.25         0.116667     0            0
C2       C     0.28125      0.166667     0            0
C3       C     0.25         0.183333     0            0
C4       C     0.28125      0.133333     0            0
C1       C     0.25         0.116667     0.333333     0
C2       C     0.28125      0.166667     0.333333     0
C3       C     0.25         0.183333     0.333333     0
C4       C     0.28125      0.133333     0.333333     0
C1       C     0.25         0.116667     0.666667     0
C2       C     0.28125      0.166667     0.666667     0
C3       C     0.25         0.183333     0.666667     0
C4       C     0.28125      0.133333     0.666667     0
C1       C     0.25         0.216667     0            0
C2       C     0.28125      0.266667     0            0
C3       C     0.25         0.283333     0            0
C4       C     0.28125      0.233333     0            0
C1       C     0.25         0.216667     0.333333     0
C2       C     0.28125      0.266667     0.333333     0
C3       C     0.25         0.283333     0.333333     0
C4       C     0.28125      0.233333     0.333333     0
C1       C     0.25         0.216667     0.666667     0
C2       C     0.28125      0.266667     0.666667     0
C3       C     0.25         0.283333     0.666667     0
C4       C     0.28125      0.233333     0.666667     0
C1       C     0.25         0.316667     0            0
C2       C     0.28125      0.366667     0            0
C3       C     0.25         0.383333     0            0
C4       C     0.28125      0.333333     0            0
C1       C     0.25         0.316667     0.333333     0
C2       C     0.28125      0.366667     0.333333     0
C3       C     0.25         0.383333     0.333333     0
C4       C     0.28125      0.333333     0.333333     0
C1       C     0.25         0.316667     0.666667     0
C2       C     0.28125      0.366667     0.666667     0
C3       C     0.25         0.383333     0.666667     0
C4       C     0.28125      0.333333     0.666667     0
C1       C     0.25         0.416667     0            0
C2       C     0.28125      0.466667     0            0
C3       C     0.25         0.483333     0            0
C4       C     0.28125      0.433333     0            0
C1       C     0.25         0.416667     0.333333     0
C2       C     0.28125      0.466667     0.333333     0
C3       C     0.25         0.483333     0.333333     0
C4       C     0.28125      0.433333     0.333333     0
C1       C     0.25         0.416667     0.666667     0
C2       C     0.28125      0.466667     0.666667     0
C3       C     0.25         0.483333     0.666667     0
C4       C     0.28125      0.433333     0.666667     0
C1       C     0.25         0.516667     0            0
C2       C     0.28125      0.566667     0            0
C3       C     0.25         0.583333     0            0
C4       C     0.28125      0.533333     0            0
C1       C     0.25         0.516667     0.333333     0
C2       C     0.28125      0.566667     0.333333     0
C3       C     0.25         0.583333     0.333333     0
C4       C     0.28125      0.533333     0.333333     0
C1       C     0.25         0.516667     0.666667     0
C2       C     0.28125      0.566667     0.666667     0
C3       C     0.25         0.583333     0.666667     0
C4       C     0.28125      0.533333     0.666667     0
C1       C     0.25         0.616667     0            0
C2       C     0.28125      0.666667     0            0
C3       C     0.25         0.683333     0            0
C4       C     0.28125      0.633333     0            0
C1       C     0.25         0.616667     0.333333     0
C2       C     0.28125      0.666667     0.333333     0
C3       C     0.25         0.683333     0.333333     0
C4       C     0.28125      0.633333     0.333333     0
C1       C     0.25         0.616667     0.666667     0
C2       C     0.28125      0.666667     0.666667     0
C3       C     0.25         0.683333     0.666667     0
C4       C     0.28125      0.633333     0.666667     0
C1       C     0.25         0.716667     0            0
C2       C     0.28125      0.766667     0            0
C3       C     0.25         0.783333     0            0
C4       C     0.28125      0.733333     0            0
C1       C     0.25         0.716667     0.333333     0
C2       C     0.28125      0.766667     0.333333     0
C3       C     0.25         0.783333     0.333333     0
C4       C     0.28125      0.733333     0.333333     0
C1       C     0.25         0.716667     0.666667     0
C2       C     0.28125      0.766667     0.666667     0
C3       C     0.25         0.783333     0.666667     0
C4       C     0.28125      0.733333     0.666667     0
C1       C     0.25         0.816667     0            0
C2       C     0.28125      0.866667     0            0
C3       C     0.25         0.883333     0            0
C4       C     0.28125      0.833333     0            0
C1       C     0.25         0.816667     0.333333     0
C2       C     0.28125      0.866667     0.333333     0
C3       C     0.25         0.883333     0.333333     0
C4       C     0.28125      0.833333     0.333333     0
C1       C     0.25         0.816667     0.666667     0
C2       C     0.28125      0.866667     0.666667     0
C3       C     0.25         0.883333     0.666667     0
C4       C     0.28125      0.833333     0.666667     0
C1       C     0.25         0.916667     0            0
C2       C     0.28125      0.966667     0            0
C3       C     0.25         0.983333     0            0
C4       C     0.28125      0.933333     0            0
C1       C     0.25         0.916667     0.333333     0
C2       C     0.28125      0.966667     0.333333     0
C3       C     0.25         0.983333     0.333333     0
C4       C     0.28125      0.933333     0.333333     0
C1       C     0.25         0.916667     0.666667     0
C2       C     0.28125      0.966667     0.666667     0
C3       C     0.25         0.983333     0.666667     0
C4       C     0.28125      0.933333     0.666667     0
C1       C     0.3125       0.016667     0            0
C2       C     0.34375      0.066667     0            0
C3       C     0.3125       0.083333     0            0
C4       C     0.34375      0.033333     0            0
C1       C     0.3125       0.016667     0.333333     0
C2       C     0.34375      0.066667     0.333333     0
C3       C     0.3125       0.083333     0.333333     0
C4       C     0.34375      0.033333     0.333333     0
C1       C     0.3125       0.016667     0.666667     0
C2       C     0.34375      0.066667     0.666667     0
C3       C     0.3125       0.083333     0.666667     0
C4       C     0.34375      0.033333     0.666667     0
C1       C     0.3125       0.116667     0            0
C2       C     0.34375      0.166667     0            0
C3       C     0.3125       0.183333     0            0
C4       C     0.34375      0.133333     0            0
C1       C     0.3125       0.116667     0.333333     0
C2       C     0.34375      0.166667     0.333333     0
C3       C     0.3125       0.183333     0.333333     0
C4       C     0.34375      0.133333     0.333333     0
C1       C     0.3125       0.116667     0.666667     0
C2       C     0.34375      0.166667     0.666667     0
C3       C     0.3125       0.183333     0.666667     0
C4       C     0.34375      0.133333     0.666667     0
C1       C     0.3125       0.216667     0            0
C2       C     0.34375      0.266667     0            0
C3       C     0.3125       0.283333     0            0
C4       C     0.34375      0.233333     0            0
C1       C     0.3125       0.216667     0.333333     0
C2       C     0.34375      0.266667     0.333333     0
C3       C     0.3125       0.283333     0.333333     0
C4       C     0.34375      0.233333     0.333333     0
C1       C     0.3125       0.216667     0.666667     0
C2       C     0.34375      0.266667     0.666667     0
C3       C     0.3125       0.283333     0.666667     0
C4       C     0.34375      0.233333     0.666667     0
C1       C     0.3125       0.316667     0            0
C2       C     0.34375      0.366667     0            0
C3       C     0.3125       0.383333     0            0
C4       C     0.34375      0.333333     0            0
C1       C     0.3125       0.316667     0.333333     0
C2       C     0.34375      0.366667     0.333333     0
C3       C     0.3125       0.383333     0.333333     0
C4       C     0.34375      0.333333     0.333333     0
C1       C     0.3125       0.316667     0.666667     0
C2       C     0.34375      0.366667     0.666667     0
C3       C     0.3125       0.383333     0.666667     0
C4       C     0.34375      0.333333     0.666667     0
C1       C     0.3125       0.416667     0            0
C2       C     0.34375      0.466667     0            0
C3       C     0.3125       0.483333     0            0
C4       C     0.34375      0.433333     0            0
C1       C     0.3125       0.416667     0.333333     0
C2       C     0.34375      0.466667     0.333333     0
C3       C     0.3125       0.483333     0.333333     0
C4       C     0.34375      0.433333     0.333333     0
C1       C     0.3125       0.416667     0.666667     0
C2       C     0.34375      0.466667     0.666667     0
C3       C     0.3125       0.483333     0.666667     0
C4       C     0.34375      0.433333     0.666667     0
C1       C     0.3125       0.516667     0            0
C2       C     0.34375      0.566667     0            0
C3       C     0.3125       0.583333     0            0
C4       C     0.34375      0.533333     0            0
C1       C     0.3125       0.516667     0.333333     0
C2       C     0.34375      0.566667     0.333333     0
C3       C     0.3125       0.583333     0.333333     0
C4       C     0.34375      0.533333     0.333333     0
C1       C     0.3125       0.516667     0.666667     0
C2       C     0.34375      0.566667     0.666667     0
C3       C     0.3125       0.583333     0.666667     0
C4       C     0.34375      0.533333     0.666667     0
C1       C     0.3125       0.616667     0            0
C2       C     0.34375      0.666667     0            0
C3       C     0.3125       0.683333     0            0
C4       C     0.34375      0.633333     0            0
C1       C     0.3125       0.616667     0.333333     0
C2       C     0.34375      0.666667     0.333333     0
C3       C     0.3125       0.683333     0.333333     0
C4       C     0.34375      0.633333     0.333333     0
C1       C     0.3125       0.616667     0.666667     0
C2       C     0.34375      0.666667     0.666667     0
C3       C     0.3125       0.683333     0.666667     0
C4       C     0.34375      0.633333     0.666667     0
C1       C     0.3125       0.716667     0            0
C2       C     0.34375      0.766667     0            0
C3       C     0.3125       0.783333     0            0
C4       C     0.34375      0.733333     0            0
C1       C     0.3125       0.716667     0.333333     0
C2       C     0.34375      0.766667     0.333333     0
C3       C     0.3125       0.783333     0.333333     0
C4       C     0.34375      0.733333     0.333333     0
C1       C     0.3125       0.716667     0.666667     0
C2       C     0.34375      0.766667     0.666667     0
C3       C     0.3125       0.783333     0.666667     0
C4       C     0.34375      0.733333     0.666667     0
C1       C     0.3125       0.816667     0            0
C2       C     0.34375      0.866667     0            0
C3       C     0.3125       0.883333     0            0
C4       C     0.34375      0.833333     0            0
C1       C     0.3125       0.816667     0.333333     0
C2       C     0.34375      0.866667     0.333333     0
C3       C     0.3125       0.883333     0.333333     0
C4       C     0.34375      0.833333     0.333333     0
C1       C     0.3125       0.816667     0.666667     0
C2       C     0.34375      0.866667     0.666667     0
C3       C     0.3125       0.883333     0.666667     0
C4       C     0.34375      0.833333     0.666667     0
C1       C     0.3125       0.916667     0            0
C2       C     0.34375      0.966667     0            0
C3       C     0.3125       0.983333     0            0
C4       C     0.34375      0.933333     0            0
C1       C     0.3125       0.916667     0.333333     0
C2       C     0.34375      0.966667     0.333333     0
C3       C     0.3125       0.983333     0.333333     0
C4       C     0.34375      0.933333     0.333333     0
C1       C     0.3125       0.916667     0.666667     0
C2       C     0.34375      0.966667     0.666667     0
C3       C     0.3125       0.983333     0.666667     0
C4       C     0.34375      0.933333     0.666667     0
C1       C     0.375        0.016667     0            0
C2       C     0.40625      0.066667     0            0
C3       C     0.375        0.083333     0            0
C4       C     0.40625      0.033333     0            0
C1       C     0.375        0.016667     0.333333     0
C2       C     0.40625      0.066667     0.333333     0
C3       C     0.375        0.083333     0.333333     0
C4       C     0.40625      0.033333     0.333333     0
C1       C     0.375        0.016667     0.666667     0
C2       C     0.40625      0.066667     0.666667     0
C3       C     0.375        0.083333     0.666667     0
C4       C     0.40625      0.033333     0.666667     0
C1       C     0.375        0.116667     0            0
C2       C     0.40625      0.166667     0            0
C3       C     0.375        0.183333     0            0
C4       C     0.40625      0.133333     0            0
C1       C     0.375        0.116667     0.333333     0
C2       C     0.40625      0.166667     0.333333     0
C3       C     0.375        0.183333     0.333333     0
C4       C     0.40625      0.133333     0.333333     0
C1       C     0.375        0.116667     0.666667     0
C2       C     0.40625      0.166667     0.666667     0
C3       C     0.375        0.183333     0.666667     0
C4       C     0.40625      0.133333     0.666667     0
C1       C     0.375        0.216667     0            0
C2       C     0.40625      0.266667     0            0
C3       C     0.375        0.283333     0            0
C4       C     0.40625      0.233333     0            0
C1       C     0.375        0.216667     0.333333     0
C2       C     0.40625      0.266667     0.333333     0
C3       C     0.375        0.283333     0.333333     0
C4       C     0.40625      0.233333     0.333333     0
C1       C     0.375        0.216667     0.666667     0
C2       C     0.40625      0.266667     0.666667     0
C3       C     0.375        0.283333     0.666667     0
C4       C     0.40625      0.233333     0.666667     0
C1       C     0.375        0.316667     0            0
C2       C     0.40625      0.366667     0            0
C3       C     0.375        0.383333     0            0
C4       C     0.40625      0.333333     0            0
C1       C     0.375        0.316667     0.333333     0
C2       C     0.40625      0.366667     0.333333     0
C3       C     0.375        0.383333     0.333333     0
C4       C     0.40625      0.333333     0.333333     0
C1       C     0.375        0.316667     0.666667     0
C2       C     0.40625      0.366667     0.666667     0
C3       C     0.375        0.383333     0.666667     0
C4       C     0.40625      0.333333     0.666667     0
C1       C     0.375        0.416667     0            0
C2       C     0.40625      0.466667     0            0
C3       C     0.375        0.483333     0            0
C4       C     0.40625      0.433333     0            0
C1       C     0.375        0.416667     0.333333     0
C2       C     0.40625      0.466667     0.333333     0
C3       C     0.375        0.483333     0.333333     0
C4       C     0.40625      0.433333     0.333333     0
C1       C     0.375        0.416667     0.666667     0
C2       C     0.40625      0.466667     0.666667     0
C3       C     0.375        0.483333     0.666667     0
C4       C     0.40625      0.433333     0.666667     0
C1       C     0.375        0.516667     0            0
C2       C     0.40625      0.566667     0            0
C3       C     0.375        0.583333     0            0
C4       C     0.40625      0.533333     0            0
C1       C     0.375        0.516667     0.333333     0
C2       C     0.40625      0.566667     0.333333     0
C3       C     0.375        0.583333     0.333333     0
C4       C     0.40625      0.533333     0.333333     0
C1       C     0.375        0.516667     0.666667     0
C2       C     0.40625      0.566667     0.666667     0
C3       C     0.375        0.583333     0.666667     0
C4       C     0.40625      0.533333     0.666667     0
C1       C     0.375        0.616667     0            0
C2       C     0.40625      0.666667     0            0
C3       C     0.375        0.683333     0            0
C4       C     0.40625      0.633333     0            0
C1       C     0.375        0.616667     0.333333     0
C2       C     0.40625      0.666667     0.333333     0
C3       C     0.375        0.683333     0.333333     0
C4       C     0.40625      0.633333     0.333333     0
C1       C     0.375        0.616667     0.666667     0
C2       C     0.40625      0.666667     0.666667     0
C3       C     0.375        0.683333     0.666667     0
C4       C     0.40625      0.633333     0.666667     0
C1       C     0.375        0.716667     0            0
C2       C     0.40625      0.766667     0            0
C3       C     0.375        0.783333     0            0
C4       C     0.40625      0.733333     0            0
C1       C     0.375        0.716667     0.333333     0
C2       C     0.40625      0.766667     0.333333     0
C3       C     0.375        0.783333     0.333333     0
C4       C     0.40625      0.733333     0.333333     0
C1       C     0.375        0.716667     0.666667     0
C2       C     0.40625      0.766667     0.666667     0
C3       C     0.375        0.783333     0.666667     0
C4       C     0.40625      0.733333     0.666667     0
C1       C     0.375        0.816667     0            0
C2       C     0.40625      0.866667     0            0
C3       C     0.375        0.883333     0            0
C4       C     0.40625      0.833333     0            0
C1       C     0.375        0.816667     0.333333     0
C2       C     0.40625      0.866667     0.333333     0
C3       C     0.375        0.883333     0.333333     0
C4       C     0.40625      0.833333     0.333333     0
C1       C     0.375        0.816667     0.666667     0
C2       C     0.40625      0.866667     0.666667     0
C3       C     0.375        0.883333     0.666667     0
C4       C     0.40625      0.833333     0.666667     0
C1       C     0.375        0.916667     0            0
C2       C     0.40625      0.966667     0            0
C3       C     0.375        0.983333     0            0
C4       C     0.40625      0.933333     0            0
C1       C     0.375        0.916667     0.333333     0
C2       C     0.40625      0.966667     0.333333     0
C3       C     0.375        0.983333     0.333333     0
C4       C     0.40625      0.933333     0.333333     0
C1       C     0.375        0.916667     0.666667     0
C2       C     0.40625      0.966667     0.666667     0
C3       C     0.375        0.983333     0.666667     0
C4       C     0.40625      0.933333     0.666667     0
C1       C     0.4375       0.016667     0            0
C2       C     0.46875      0.066667     0            0
C3       C     0.4375       0.083333     0            0
C4       C     0.46875      0.033333     0            0
C1       C     0.4375       0.016667     0.333333     0
C2       C     0.46875      0.066667     0.333333     0
C3       C     0.4375       0.083333     0.333333     0
C4       C     0.46875      0.033333     0.333333     0
C1       C     0.4375       0.016667     0.666667     0
C2       C     0.46875      0.066667     0.666667     0
C3       C     0.4375       0.083333     0.666667     0
C4       C     0.46875      0.033333     0.666667     0
C1       C     0.4375       0.116667     0            0
C2       C     0.46875      0.166667     0            0
C3       C     0.4375       0.183333     0            0
C4       C     0.46875      0.133333     0            0
C1       C     0.4375       0.116667     0.333333     0
C2       C     0.46875      0.166667     0.333333     0
C3       C     0.4375       0.183333     0.333333     0
C4       C     0.46875      0.133333     0.333333     0
C1       C     0.4375       0.116667     0.666667     0
C2       C     0.46875      0.166667     0.666667     0
C3       C     0.4375       0.183333     0.666667     0
C4       C     0.46875      0.133333     0.666667     0
C1       C     0.4375       0.216667     0            0
C2       C     0.46875      0.266667     0            0
C3       C     0.4375       0.283333     0            0
C4       C     0.46875      0.233333     0            0
C1       C     0.4375       0.216667     0.333333     0
C2       C     0.46875      0.266667     0.333333     0
C3       C     0.4375       0.283333     0.333333     0
C4       C     0.46875      0.233333     0.333333     0
C1       C     0.4375       0.216667     0.666667     0
C2       C     0.46875      0.266667     0.666667     0
C3       C     0.4375       0.283333     0.666667     0
C4       C     0.46875      0.233333     0.666667     0
C1       C     0.4375       0.316667     0            0
C2       C     0.46875      0.366667     0            0
C3       C     0.4375       0.383333     0            0
C4       C     0.46875      0.333333     0            0
C1       C     0.4375       0.316667     0.333333     0
C2       C     0.46875      0.366667     0.333333     0
C3       C     0.4375       0.383333     0.333333     0
C4       C     0.46875      0.333333     0.333333     0
C1       C     0.4375       0.316667     0.666667     0
C2       C     0.46875      0.366667     0.666667     0
C3       C     0.4375       0.383333     0.666667     0
C4       C     0.46875      0.333333     0.666667     0
C1       C     0.4375       0.416667     0            0
C2       C     0.46875      0.466667     0            0
C3       C     0.4375       0.483333     0            0
C4       C     0.46875      0.433333     0            0
C1       C     0.4375       0.416667     0.333333     0
C2       C     0.46875      0.466667     0.333333     0
C3       C     0.4375       0.483333     0.333333     0
C4       C     0.46875      0.433333     0.333333     0
C1       C     0.4375       0.416667     0.666667     0
C2       C     0.46875      0.466667     0.666667     0
C3       C     0.4375       0.483333     0.666667     0
C4       C     0.46875      0.433333     0.666667     0
C1       C     0.4375       0.516667     0            0
C2       C     0.46875      0.566667     0            0
C3       C     0.4375       0.583333     0            0
C4       C     0.46875      0.533333     0            0
C1       C     0.4375       0.516667     0.333333     0
C2       C     0.46875      0.566667     0.333333     0
C3       C     0.4375       0.583333     0.333333     0
C4       C     0.46875      0.533333     0.333333     0
C1       C     0.4375       0.516667     0.666667     0
C2       C     0.46875      0.566667     0.666667     0
C3       C     0.4375       0.583333     0.666667     0
C4       C     0.46875      0.533333     0.666667     0
C1       C     0.4375       0.616667     0            0
C2       C     0.46875      0.666667     0            0
C3       C     0.4375       0.683333     0            0
C4       C     0.46875      0.633333     0            0
C1       C     0.4375       0.616667     0.333333     0
C2       C     0.46875      0.666667     0.333333     0
C3       C     0.4375       0.683333     0.333333     0
C4       C     0.46875      0.633333     0.333333     0
C1       C     0.4375       0.616667     0.666667     0
C2       C     0.46875      0.666667     0.666667     0
C3       C     0.4375       0.683333     0.666667     0
C4       C     0.46875      0.633333     0.666667     0
C1       C     0.4375       0.716667     0            0
C2       C     0.46875      0.766667     0            0
C3       C     0.4375       0.783333     0            0
C4       C     0.46875      0.733333     0            0
C1       C     0.4375       0.716667     0.333333     0
C2       C     0.46875      0.766667     0.333333     0
C3       C     0.4375       0.783333     0.333333     0
C4       C     0.46875      0.733333     0.333333     0
C1       C     0.4375       0.716667     0.666667     0
C2       C     0.46875      0.766667     0.666667     0
C3       C     0.4375       0.783333     0.666667     0
C4       C     0.46875      0.733333     0.666667     0
C1       C     0.4375       0.816667     0            0
C2       C     0.46875      0.866667     0            0
C3       C     0.4375       0.883333     0            0
C4       C     0.46875      0.833333     0            0
C1       C     0.4375       0.816667     0.333333     0
C2       C     0.46875      0.866667     0.333333     0
C3       C     0.4375       0.883333     0.333333     0
C4       C     0.46875      0.833333     0.333333     0
C1       C     0.4375       0.816667     0.666667     0
C2       C     0.46875      0.866667     0.666667     0
C3       C     0.4375       0.883333     0.666667     0
C4       C     0.46875      0.833333     0.666667     0
C1       C     0.4375       0.916667     0            0
C2       C     0.46875      0.966667     0            0
C3       C     0.4375       0.983333     0            0
C4       C     0.46875      0.933333     0            0
C1       C     0.4375       0.916667     0.333333     0
C2       C     0.46875      0.966667     0.333333     0
C3       C     0.4375       0.983333     0.333333     0
C4       C     0.46875      0.933333     0.333333     0
C1       C     0.4375       0.916667     0.666667     0
C2       C     0.46875      0.966667     0.666667     0
C3       C     0.4375       0.983333     0.666667     0
C4       C     0.46875      0.933333     0.666667     0
C1       C     0.5          0.016667     0            0
C2       C     0.53125      0.066667     0            0
C3       C     0.5          0.083333     0            0
C4       C     0.53125      0.033333     0            0
C1       C     0.5          0.016667     0.333333     0
C2       C     0.53125      0.066667     0.333333     0
C3       C     0.5          0.083333     0.333333     0
C4       C     0.53125      0.033333     0.333333     0
C1       C     0.5          0.016667     0.666667     0
C2       C     0.53125      0.066667     0.666667     0
C3       C     0.5          0.083333     0.666667     0
C4       C     0.53125      0.033333     0.666667     0
C1       C     0.5          0.116667     0            0
C2       C     0.53125      0.166667     0            0
C3       C     0.5          0.183333     0            0
C4       C     0.53125      0.133333     0            0
C1       C     0.5          0.116667     0.333333     0
C2       C     0.53125      0.166667     0.333333     0
C3       C     0.5          0.183333     0.333333     0
C4       C     0.53125      0.133333     0.333333     0
C1       C     0.5          0.116667     0.666667     0
C2       C     0.53125      0.166667     0.666667     0
C3       C     0.5          0.183333     0.666667     0
C4       C     0.53125      0.133333     0.666667     0
C1       C     0.5          0.216667     0            0
C2       C     0.53125      0.266667     0            0
C3       C     0.5          0.283333     0            0
C4       C     0.53125      0.233333     0            0
C1       C     0.5          0.216667     0.333333     0
C2       C     0.53125      0.266667     0.333333     0
C3       C     0.5          0.283333     0.333333     0
C4       C     0.53125      0.233333     0.333333     0
C1       C     0.5          0.216667     0.666667     0
C2       C     0.53125      0.266667     0.666667     0
C3       C     0.5          0.283333     0.666667     0
C4       C     0.53125      0.233333     0.666667     0
C1       C     0.5          0.316667     0            0
C2       C     0.53125      0.366667     0            0
C3       C     0.5          0.383333     0            0
C4       C     0.53125      0.333333     0            0
C1       C     0.5          0.316667     0.333333     0
C2       C     0.53125      0.366667     0.333333     0
C3       C     0.5          0.383333     0.333333     0
C4       C     0.53125      0.333333     0.333333     0
C1       C     0.5          0.316667     0.666667     0
C2       C     0.53125      0.366667     0.666667     0
C3       C     0.5          0.383333     0.666667     0
C4       C     0.53125      0.333333     0.666667     0
C1       C     0.5          0.416667     0            0
C2       C     0.53125      0.466667     0            0
C3       C     0.5          0.483333     0            0
C4       C     0.53125      0.433333     0            0
C1       C     0.5          0.416667     0.333333     0
C2       C     0.53125      0.466667     0.333333     0
C3       C     0.5          0.483333     0.333333     0
C4       C     0.53125      0.433333     0.333333     0
C1       C     0.5          0.416667     0.666667     0
C2       C     0.53125      0.466667     0.666667     0
C3       C     0.5          0.483333     0.666667     0
C4       C     0.53125      0.433333     0.666667     0
C1       C     0.5          0.516667     0            0
C2       C     0.53125      0.566667     0            0
C3       C     0.5          0.583333     0            0
C4       C     0.53125      0.533333     0            0
C1       C     0.5          0.516667     0.333333     0
C2       C     0.53125      0.566667     0.333333     0
C3       C     0.5          0.583333     0.333333     0
C4       C     0.53125      0.533333     0.333333     0
C1       C     0.5          0.516667     0.666667     0
C2       C     0.53125      0.566667     0.666667     0
C3       C     0.5          0.583333     0.666667     0
C4       C     0.53125      0.533333     0.666667     0
C1       C     0.5          0.616667     0            0
C2       C     0.53125      0.666667     0            0
C3       C     0.5          0.683333     0            0
C4       C     0.53125      0.633333     0            0
C1       C     0.5          0.616667     0.333333     0
C2       C     0.53125      0.666667     0.333333     0
C3       C     0.5          0.683333     0.333333     0
C4       C     0.53125      0.633333     0.333333     0
C1       C     0.5          0.616667     0.666667     0
C2       C     0.53125      0.666667     0.666667     0
C3       C     0.5          0.683333     0.666667     0
C4       C     0.53125      0.633333     0.666667     0
C1       C     0.5          0.716667     0            0
C2       C     0.53125      0.766667     0            0
C3       C     0.5          0.783333     0            0
C4       C     0.53125      0.733333     0            0
C1       C     0.5          0.716667     0.333333     0
C2       C     0.53125      0.766667     0.333333     0
C3       C     0.5          0.783333     0.333333     0
C4       C     0.53125      0.733333     0.333333     0
C1       C     0.5          0.716667     0.666667     0
C2       C     0.53125      0.766667     0.666667     0
C3       C     0.5          0.783333     0.666667     0
C4       C     0.53125      0.733333     0.666667     0
C1       C     0.5          0.816667     0            0
C2       C     0.53125      0.866667     0            0
C3       C     0.5          0.883333     0            0
C4       C     0.53125      0.833333     0            0
C1       C     0.5          0.816667     0.333333     0
C2       C     0.53125      0.866667     0.333333     0
C3       C     0.5          0.883333     0.333333     0
C4       C     0.53125      0.833333     0.333333     0
C1       C     0.5          0.816667     0.666667     0
C2       C     0.53125      0.866667     0.666667     0
C3       C     0.5          0.883333     0.666667     0
C4       C     0.53125      0.833333     0.666667     0
C1       C     0.5          0.916667     0            0
C2       C     0.53125      0.966667     0            0
C3       C     0.5          0.983333     0            0
C4       C     0.53125      0.933333     0            0
C1       C     0.5          0.916667     0.333333     0
C2       C     0.53125      0.966667     0.333333     0
C3       C     0.5          0.983333     0.333333     0
C4       C     0.53125      0.933333     0.333333     0
C1       C     0.5          0.916667     0.666667     0
C2       C     0.53125      0.966667     0.666667     0
C3       C     0.5          0.983333     0.666667     0
C4       C     0.53125      0.933333     0.666667     0
C1       C     0.5625       0.016667     0            0
C2       C     0.59375      0.066667     0            0
C3       C     0.5625       0.083333     0            0
C4       C     0.59375      0.033333     0            0
C1       C     0.5625       0.016667     0.333333     0
C2       C     0.59375      0.066667     0.333333     0
C3       C     0.5625       0.083333     0.333333     0
C4       C     0.59375      0.033333     0.333333     0
C1       C     0.5625       0.016667     0.666667     0
C2       C     0.59375      0.066667     0.666667     0
C3       C     0.5625       0.083333     0.666667     0
C4       C     0.59375      0.033333     0.666667     0
C1       C     0.5625       0.116667     0            0
C2       C     0.59375      0.166667     0            0
C3       C     0.5625       0.183333     0            0
C4       C     0.59375      0.133333     0            0
C1       C     0.5625       0.116667     0.333333     0
C2       C     0.59375      0.166667     0.333333     0
C3       C     0.5625       0.183333     0.333333     0
C4       C     0.59375      0.133333     0.333333     0
C1       C     0.5625       0.116667     0.666667     0
C2       C     0.59375      0.166667     0.666667     0
C3       C     0.5625       0.183333     0.666667     0
C4       C     0.59375      0.133333     0.666667     0
C1       C     0.5625       0.216667     0            0
C2       C     0.59375      0.266667     0            0
C3       C     0.5625       0.283333     0            0
C4       C     0.59375      0.233333     0            0
C1       C     0.5625       0.216667     0.333333     0
C2       C     0.59375      0.266667     0.333333     0
C3       C     0.5625       0.283333     0.333333     0
C4       C     0.59375      0.233333     0.333333     0
C1       C     0.5625       0.216667     0.666667     0
C2       C     0.59375      0.266667     0.666667     0
C3       C     0.5625       0.283333     0.666667     0
C4       C     0.59375      0.233333     0.666667     0
C1       C     0.5625       0.316667     0            0
C2       C     0.59375      0.366667     0            0
C3       C     0.5625       0.383333     0            0
C4       C     0.59375      0.333333     0            0
C1       C     0.5625       0.316667     0.333333     0
C2       C     0.59375      0.366667     0.333333     0
C3       C     0.5625       0.383333     0.333333     0
C4       C     0.59375      0.333333     0.333333     0
C1       C     0.5625       0.316667     0.666667     0
C2       C     0.59375      0.366667     0.666667     0
C3       C     0.5625       0.383333     0.666667     0
C4       C     0.59375      0.333333     0.666667     0
C1       C     0.5625       0.416667     0            0
C2       C     0.59375      0.466667     0            0
C3       C     0.5625       0.483333     0            0
C4       C     0.59375      0.433333     0            0
C1       C     0.5625       0.416667     0.333333     0
C2       C     0.59375      0.466667     0.333333     0
C3       C     0.5625       0.483333     0.333333     0
C4       C     0.59375      0.433333     0.333333     0
C1       C     0.5625       0.416667     0.666667     0
C2       C     0.59375      0.466667     0.666667     0
C3       C     0.5625       0.483333     0.666667     0
C4       C     0.59375      0.433333     0.666667     0
C1       C     0.5625       0.516667     0            0
C2       C     0.59375      0.566667     0            0
C3       C     0.5625       0.583333     0            0
C4       C     0.59375      0.533333     0            0
C1       C     0.5625       0.516667     0.333333     0
C2       C     0.59375      0.566667     0.333333     0
C3       C     0.5625       0.583333     0.333333     0
C4       C     0.59375      0.533333     0.333333     0
C1       C     0.5625       0.516667     0.666667     0
C2       C     0.59375      0.566667     0.666667     0
C3       C     0.5625       0.583333     0.666667     0
C4       C     0.59375      0.533333     0.666667     0
C1       C     0.5625       0.616667     0            0
C2       C     0.59375      0.666667     0            0
C3       C     0.5625       0.683333     0            0
C4       C     0.59375      0.633333     0            0
C1       C     0.5625       0.616667     0.333333     0
C2       C     0.59375      0.666667     0.333333     0
C3       C     0.5625       0.683333     0.333333     0
C4       C     0.59375      0.633333     0.333333     0
C1       C     0.5625       0.616667     0.666667     0
C2       C     0.59375      0.666667     0.666667     0
C3       C     0.5625       0.683333     0.666667     0
C4       C     0.59375      0.633333     0.666667     0
C1       C     0.5625       0.716667     0            0
C2       C     0.59375      0.766667     0            0
C3       C     0.5625       0.783333     0            0
C4       C     0.59375      0.733333     0            0
C1       C     0.5625       0.716667     0.333333     0
C2       C     0.59375      0.766667     0.333333     0
C3       C     0.5625       0.783333     0.333333     0
C4       C     0.59375      0.733333     0.333333     0
C1       C     0.5625       0.716667     0.666667     0
C2       C     0.59375      0.766667     0.666667     0
C3       C     0.5625       0.783333     0.666667     0
C4       C     0.59375      0.733333     0.666667     0
C1       C     0.5625       0.816667     0            0
C2       C     0.59375      0.866667     0            0
C3       C     0.5625       0.883333     0            0
C4       C     0.59375      0.833333     0            0
C1       C     0.5625       0.816667     0.333333     0
C2       C     0.59375      0.866667     0.333333     0
C3       C     0.5625       0.883333     0.333333     0
C4       C     0.59375      0.833333     0.333333     0
C1       C     0.5625       0.816667     0.666667     0
C2       C     0.59375      0.866667     0.666667     0
C3       C     0.5625       0.883333     0.666667     0
C4       C     0.59375      0.833333     0.666667     0
C1       C     0.5625       0.916667     0            0
C2       C     0.59375      0.966667     0            0
C3       C     0.5625       0.983333     0            0
C4       C     0.59375      0.933333     0            0
C1       C     0.5625       0.916667     0.333333     0
C2       C     0.59375      0.966667     0.333333     0
C3       C     0.5625       0.983333     0.333333     0
C4       C     0.59375      0.933333     0.333333     0
C1       C     0.5625       0.916667     0.666667     0
C2       C     0.59375      0.966667     0.666667     0
C3       C     0.5625       0.983333     0.666667     0
C4       C     0.59375      0.933333     0.666667     0
C1       C     0.625        0.016667     0            0
C2       C     0.65625      0.066667     0            0
C3       C     0.625        0.083333     0            0
C4       C     0.65625      0.033333     0            0
C1       C     0.625        0.016667     0.333333     0
C2       C     0.65625      0.066667     0.333333     0
C3       C     0.625        0.083333     0.333333     0
C4       C     0.65625      0.033333     0.333333     0
C1       C     0.625        0.016667     0.666667     0
C2       C     0.65625      0.066667     0.666667     0
C3       C     0.625        0.083333     0.666667     0
C4       C     0.65625      0.033333     0.666667     0
C1       C     0.625        0.116667     0            0
C2       C     0.65625      0.166667     0            0
C3       C     0.625        0.183333     0            0
C4       C     0.65625      0.133333     0            0
C1       C     0.625        0.116667     0.333333     0
C2       C     0.65625      0.166667     0.333333     0
C3       C     0.625        0.183333     0.333333     0
C4       C     0.65625      0.133333     0.333333     0
C1       C     0.625        0.116667     0.666667     0
C2       C     0.65625      0.166667     0.666667     0
C3       C     0.625        0.183333     0.666667     0
C4       C     0.65625      0.133333     0.666667     0
C1       C     0.625        0.216667     0            0
C2       C     0.65625      0.266667     0            0
C3       C     0.625        0.283333     0            0
C4       C     0.65625      0.233333     0            0
C1       C     0.625        0.216667     0.333333     0
C2       C     0.65625      0.266667     0.333333     0
C3       C     0.625        0.283333     0.333333     0
C4       C     0.65625      0.233333     0.333333     0
C1       C     0.625        0.216667     0.666667     0
C2       C     0.65625      0.266667     0.666667     0
C3       C     0.625        0.283333     0.666667     0
C4       C     0.65625      0.233333     0.666667     0
C1       C     0.625        0.316667     0            0
C2       C     0.65625      0.366667     0            0
C3       C     0.625        0.383333     0            0
C4       C     0.65625      0.333333     0            0
C1       C     0.625        0.316667     0.333333     0
C2       C     0.65625      0.366667     0.333333     0
C3       C     0.625        0.383333     0.333333     0
C4       C     0.65625      0.333333     0.333333     0
C1       C     0.625        0.316667     0.666667     0
C2       C     0.65625      0.366667     0.666667     0
C3       C     0.625        0.383333     0.666667     0
C4       C     0.65625      0.333333     0.666667     0
C1       C     0.625        0.416667     0            0
C2       C     0.65625      0.466667     0            0
C3       C     0.625        0.483333     0            0
C4       C     0.65625      0.433333     0            0
C1       C     0.625        0.416667     0.333333     0
C2       C     0.65625      0.466667     0.333333     0
C3       C     0.625        0.483333     0.333333     0
C4       C     0.65625      0.433333     0.333333     0
C1       C     0.625        0.416667     0.666667     0
C2       C     0.65625      0.466667     0.666667     0
C3       C     0.625        0.483333     0.666667     0
C4       C     0.65625      0.433333     0.666667     0
C1       C     0.625        0.516667     0            0
C2       C     0.65625      0.566667     0            0
C3       C     0.625        0.583333     0            0
C4       C     0.65625      0.533333     0            0
C1       C     0.625        0.516667     0.333333     0
C2       C     0.65625      0.566667     0.333333     0
C3       C     0.625        0.583333     0.333333     0
C4       C     0.65625      0.533333     0.333333     0
C1       C     0.625        0.516667     0.666667     0
C2       C     0.65625      0.566667     0.666667     0
C3       C     0.625        0.583333     0.666667     0
C4       C     0.65625      0.533333     0.666667     0
C1       C     0.625        0.616667     0            0
C2       C     0.65625      0.666667     0            0
C3       C     0.625        0.683333     0            0
C4       C     0.65625      0.633333     0            0
C1       C     0.625        0.616667     0.333333     0
C2       C     0.65625      0.666667     0.333333     0
C3       C     0.625        0.683333     0.333333     0
C4       C     0.65625      0.633333     0.333333     0
C1       C     0.625        0.616667     0.666667     0
C2       C     0.65625      0.666667     0.666667     0
C3       C     0.625        0.683333     0.666667     0
C4       C     0.65625      0.633333     0.666667     0
C1       C     0.625        0.716667     0            0
C2       C     0.65625      0.766667     0            0
C3       C     0.625        0.783333     0            0
C4       C     0.65625      0.733333     0            0
C1       C     0.625        0.716667     0.333333     0
C2       C     0.65625      0.766667     0.333333     0
C3       C     0.625        0.783333     0.333333     0
C4       C     0.65625      0.733333     0.333333     0
C1       C     0.625        0.716667     0.666667     0
C2       C     0.65625      0.766667     0.666667     0
C3       C     0.625        0.783333     0.666667     0
C4       C     0.65625      0.733333     0.666667     0
C1       C     0.625        0.816667     0            0
C2       C     0.65625      0.866667     0            0
C3       C     0.625        0.883333     0            0
C4       C     0.65625      0.833333     0            0
C1       C     0.625        0.816667     0.333333     0
C2       C     0.65625      0.866667     0.333333     0
C3       C     0.625        0.883333     0.333333     0
C4       C     0.65625      0.833333     0.333333     0
C1       C     0.625        0.816667     0.666667     0
C2       C     0.65625      0.866667     0.666667     0
C3       C     0.625        0.883333     0.666667     0
C4       C     0.65625      0.833333     0.666667     0
C1       C     0.625        0.916667     0            0
C2       C     0.65625      0.966667     0            0
C3       C     0.625        0.983333     0            0
C4       C     0.65625      0.933333     0            0
C1       C     0.625        0.916667     0.333333     0
C2       C     0.65625      0.966667     0.333333     0
C3       C     0.625        0.983333     0.333333     0
C4       C     0.65625      0.933333     0.333333     0
C1       C     0.625        0.916667     0.666667     0
C2       C     0.65625      0.966667     0.666667     0
C3       C     0.625        0.983333     0.666667     0
C4       C     0.65625      0.933333     0.666667     0
C1       C     0.6875       0.016667     0            0
C2       C     0.71875      0.066667     0            0
C3       C     0.6875       0.083333     0            0
C4       C     0.71875      0.033333     0            0
C1       C     0.6875       0.016667     0.333333     0
C2       C     0.71875      0.066667     0.333333     0
C3       C     0.6875       0.083333     0.333333     0
C4       C     0.71875      0.033333     0.333333     0
C1       C     0.6875       0.016667     0.666667     0
C2       C     0.71875      0.066667     0.666667     0
C3       C     0.6875       0.083333     0.666667     0
C4       C     0.71875      0.033333     0.666667     0
C1       C     0.6875       0.116667     0            0
C2       C     0.71875      0.166667     0            0
C3       C     0.6875       0.183333     0            0
C4       C     0.71875      0.133333     0            0
C1       C     0.6875       0.116667     0.333333     0
C2       C     0.71875      0.166667     0.333333     0
C3       C     0.6875       0.183333     0.333333     0
C4       C     0.71875      0.133333     0.333333     0
C1       C     0.6875       0.116667     0.666667     0
C2       C     0.71875      0.166667     0.666667     0
C3       C     0.6875       0.183333     0.666667     0
C4       C     0.71875      0.133333     0.666667     0
C1       C     0.6875       0.216667     0            0
C2       C     0.71875      0.266667     0            0
C3       C     0.6875       0.283333     0            0
C4       C     0.71875      0.233333     0            0
C1       C     0.6875       0.216667     0.333333     0
C2       C     0.71875      0.266667     0.333333     0
C3       C     0.6875       0.283333     0.333333     0
C4       C     0.71875      0.233333     0.333333     0
C1       C     0.6875       0.216667     0.666667     0
C2       C     0.71875      0.266667     0.666667     0
C3       C     0.6875       0.283333     0.666667     0
C4       C     0.71875      0.233333     0.666667     0
C1       C     0.6875       0.316667     0            0
C2       C     0.71875      0.366667     0            0
C3       C     0.6875       0.383333     0            0
C4       C     0.71875      0.333333     0            0
C1       C     0.6875       0.316667     0.333333     0
C2       C     0.71875      0.366667     0.333333     0
C3       C     0.6875       0.383333     0.333333     0
C4       C     0.71875      0.333333     0.333333     0
C1       C     0.6875       0.316667     0.666667     0
C2       C     0.71875      0.366667     0.666667     0
C3       C     0.6875       0.383333     0.666667     0
C4       C     0.71875      0.333333     0.666667     0
C1       C     0.6875       0.416667     0            0
C2       C     0.71875      0.466667     0            0
C3       C     0.6875       0.483333     0            0
C4       C     0.71875      0.433333     0            0
C1       C     0.6875       0.416667     0.333333     0
C2       C     0.71875      0.466667     0.333333     0
C3       C     0.6875       0.483333     0.333333     0
C4       C     0.71875      0.433333     0.333333     0
C1       C     0.6875       0.416667     0.666667     0
C2       C     0.71875      0.466667     0.666667     0
C3       C     0.6875       0.483333     0.666667     0
C4       C     0.71875      0.433333     0.666667     0
C1       C     0.6875       0.516667     0            0
C2       C     0.71875      0.566667     0            0
C3       C     0.6875       0.583333     0            0
C4       C     0.71875      0.533333     0            0
C1       C     0.6875       0.516667     0.333333     0
C2       C     0.71875      0.566667     0.333333     0
C3       C     0.6875       0.583333     0.333333     0
C4       C     0.71875      0.533333     0.333333     0
C1       C     0.6875       0.516667     0.666667     0
C2       C     0.71875      0.566667     0.666667     0
C3       C     0.6875       0.583333     0.666667     0
C4       C     0.71875      0.533333     0.666667     0
C1       C     0.6875       0.616667     0            0
C2       C     0.71875      0.666667     0            0
C3       C     0.6875       0.683333     0            0
C4       C     0.71875      0.633333     0            0
C1       C     0.6875       0.616667     0.333333     0
C2       C     0.71875      0.666667     0.333333     0
C3       C     0.6875       0.683333     0.333333     0
C4       C     0.71875      0.633333     0.333333     0
C1       C     0.6875       0.616667     0.666667     0
C2       C     0.71875      0.666667     0.666667     0
C3       C     0.6875       0.683333     0.666667     0
C4       C     0.71875      0.633333     0.666667     0
C1       C     0.6875       0.716667     0            0
C2       C     0.71875      0.766667     0            0
C3       C     0.6875       0.783333     0            0
C4       C     0.71875      0.733333     0            0
C1       C     0.6875       0.716667     0.333333     0
C2       C     0.71875      0.766667     0.333333     0
C3       C     0.6875       0.783333     0.333333     0
C4       C     0.71875      0.733333     0.333333     0
C1       C     0.6875       0.716667     0.666667     0
C2       C     0.71875      0.766667     0.666667     0
C3       C     0.6875       0.783333     0.666667     0
C4       C     0.71875      0.733333     0.666667     0
C1       C     0.6875       0.816667     0            0
C2       C     0.71875      0.866667     0            0
C3       C     0.6875       0.883333     0            0
C4       C     0.71875      0.833333     0            0
C1       C     0.6875       0.816667     0.333333     0
C2       C     0.71875      0.866667     0.333333     0
C3       C     0.6875       0.883333     0.333333     0
C4       C     0.71875      0.833333     0.333333     0
C1       C     0.6875       0.816667     0.666667     0
C2       C     0.71875      0.866667     0.666667     0
C3       C     0.6875       0.883333     0.666667     0
C4       C     0.71875      0.833333     0.666667     0
C1       C     0.6875       0.916667     0            0
C2       C     0.71875      0.966667     0            0
C3       C     0.6875       0.983333     0            0
C4       C     0.71875      0.933333     0            0
C1       C     0.6875       0.916667     0.333333     0
C2       C     0.71875      0.966667     0.333333     0
C3       C     0.6875       0.983333     0.333333     0
C4       C     0.71875      0.933333     0.333333     0
C1       C     0.6875       0.916667     0.666667     0
C2       C     0.71875      0.966667     0.666667     0
C3       C     0.6875       0.983333     0.666667     0
C4       C     0.71875      0.933333     0.666667     0
C1       C     0.75         0.016667     0            0
C2       C     0.78125      0.066667     0            0
C3       C     0.75         0.083333     0            0
C4       C     0.78125      0.033333     0            0
C1       C     0.75         0.016667     0.333333     0
C2       C     0.78125      0.066667     0.333333     0
C3       C     0.75         0.083333     0.333333     0
C4       C     0.78125      0.033333     0.333333     0
C1       C     0.75         0.016667     0.666667     0
C2       C     0.78125      0.066667     0.666667     0
C3       C     0.75         0.083333     0.666667     0
C4       C     0.78125      0.033333     0.666667     0
C1       C     0.75         0.116667     0            0
C2       C     0.78125      0.166667     0            0
C3       C     0.75         0.183333     0            0
C4       C     0.78125      0.133333     0            0
C1       C     0.75         0.116667     0.333333     0
C2       C     0.78125      0.166667     0.333333     0
C3       C     0.75         0.183333     0.333333     0
C4       C     0.78125      0.133333     0.333333     0
C1       C     0.75         0.116667     0.666667     0
C2       C     0.78125      0.166667     0.666667     0
C3       C     0.75         0.183333     0.666667     0
C4       C     0.78125      0.133333     0.666667     0
C1       C     0.75         0.216667     0            0
C2       C     0.78125      0.266667     0            0
C3       C     0.75         0.283333     0            0
C4       C     0.78125      0.233333     0            0
C1       C     0.75         0.216667     0.333333     0
C2       C     0.78125      0.266667     0.333333     0
C3       C     0.75         0.283333     0.333333     0
C4       C     0.78125      0.233333     0.333333     0
C1       C     0.75         0.216667     0.666667     0
C2       C     0.78125      0.266667     0.666667     0
C3       C     0.75         0.283333     0.666667     0
C4       C     0.78125      0.233333     0.666667     0
C1       C     0.75         0.316667     0            0
C2       C     0.78125      0.366667     0            0
C3       C     0.75         0.383333     0            0
C4       C     0.78125      0.333333     0            0
C1       C     0.75         0.316667     0.333333     0
C2       C     0.78125      0.366667     0.333333     0
C3       C     0.75         0.383333     0.333333     0
C4       C     0.78125      0.333333     0.333333     0
C1       C     0.75         0.316667     0.666667     0
C2       C     0.78125      0.366667     0.666667     0
C3       C     0.75         0.383333     0.666667     0
C4       C     0.78125      0.333333     0.666667     0
C1       C     0.75         0.416667     0            0
C2       C     0.78125      0.466667     0            0
C3       C     0.75         0.483333     0            0
C4       C     0.78125      0.433333     0            0
C1       C     0.75         0.416667     0.333333     0
C2       C     0.78125      0.466667     0.333333     0
C3       C     0.75         0.483333     0.333333     0
C4       C     0.78125      0.433333     0.333333     0
C1       C     0.75         0.416667     0.666667     0
C2       C     0.78125      0.466667     0.666667     0
C3       C     0.75         0.483333     0.666667     0
C4       C     0.78125      0.433333     0.666667     0
C1       C     0.75         0.516667     0            0
C2       C     0.78125      0.566667     0            0
C3       C     0.75         0.583333     0            0
C4       C     0.78125      0.533333     0            0
C1       C     0.75         0.516667     0.333333     0
C2       C     0.78125      0.566667     0.333333     0
C3       C     0.75         0.583333     0.333333     0
C4       C     0.78125      0.533333     0.333333     0
C1       C     0.75         0.516667     0.666667     0
C2       C     0.78125      0.566667     0.666667     0
C3       C     0.75         0.583333     0.666667     0
C4       C     0.78125      0.533333     0.666667     0
C1       C     0.75         0.616667     0            0
C2       C     0.78125      0.666667     0            0
C3       C     0.75         0.683333     0            0
C4       C     0.78125      0.633333     0            0
C1       C     0.75         0.616667     0.333333     0
C2       C     0.78125      0.666667     0.333333     0
C3       C     0.75         0.683333     0.333333     0
C4       C     0.78125      0.633333     0.333333     0
C1       C     0.75         0.616667     0.666667     0
C2       C     0.78125      0.666667     0.666667     0
C3       C     0.75         0.683333     0.666667     0
C4       C     0.78125      0.633333     0.666667     0
C1       C     0.75         0.716667     0            0
C2       C     0.78125      0.766667     0            0
C3       C     0.75         0.783333     0            0
C4       C     0.78125      0.733333     0            0
C1       C     0.75         0.716667     0.333333     0
C2       C     0.78125      0.766667     0.333333     0
C3       C     0.75         0.783333     0.333333     0
C4       C     0.78125      0.733333     0.333333     0
C1       C     0.75         0.716667     0.666667     0
C2       C     0.78125      0.766667     0.666667     0
C3       C     0.75         0.783333     0.666667     0
C4       C     0.78125      0.733333     0.666667     0
C1       C     0.75         0.816667     0            0
C2       C     0.78125      0.866667     0            0
C3       C     0.75         0.883333     0            0
C4       C     0.78125      0.833333     0            0
C1       C     0.75         0.816667     0.333333     0
C2       C     0.78125      0.866667     0.333333     0
C3       C     0.75         0.883333     0.333333     0
C4       C     0.78125      0.833333     0.333333     0
C1       C     0.75         0.816667     0.666667     0
C2       C     0.78125      0.866667     0.666667     0
C3       C     0.75         0.883333     0.666667     0
C4       C     0.78125      0.833333     0.666667     0
C1       C     0.75         0.916667     0            0
C2       C     0.78125      0.966667     0            0
C3       C     0.75         0.983333     0            0
C4       C     0.78125      0.933333     0            0
C1       C     0.75         0.916667     0.333333     0
C2       C     0.78125      0.966667     0.333333     0
C3       C     0.75         0.983333     0.333333     0
C4       C     0.78125      0.933333     0.333333     0
C1       C     0.75         0.916667     0.666667     0
C2       C     0.78125      0.966667     0.666667     0
C3       C     0.75         0.983333     0.666667     0
C4       C     0.78125      0.933333     0.666667     0
C1       C     0.8125       0.016667     0            0
C2       C     0.84375      0.066667     0            0
C3       C     0.8125       0.083333     0            0
C4       C     0.84375      0.033333     0            0
C1       C     0.8125       0.016667     0.333333     0
C2       C     0.84375      0.066667     0.333333     0
C3       C     0.8125       0.083333     0.333333     0
C4       C     0.84375      0.033333     0.333333     0
C1       C     0.8125       0.016667     0.666667     0
C2       C     0.84375      0.066667     0.666667     0
C3       C     0.8125       0.083333     0.666667     0
C4       C     0.84375      0.033333     0.666667     0
C1       C     0.8125       0.116667     0            0
C2       C     0.84375      0.166667     0            0
C3       C     0.8125       0.183333     0            0
C4       C     0.84375      0.133333     0            0
C1       C     0.8125       0.116667     0.333333     0
C2       C     0.84375      0.166667     0.333333     0
C3       C     0.8125       0.183333     0.333333     0
C4       C     0.84375      0.133333     0.333333     0
C1       C     0.8125       0.116667     0.666667     0
C2       C     0.84375      0.166667     0.666667     0
C3       C     0.8125       0.183333     0.666667     0
C4       C     0.84375      0.133333     0.666667     0
C1       C     0.8125       0.216667     0            0
C2       C     0.84375      0.266667     0            0
C3       C     0.8125       0.283333     0            0
C4       C     0.84375      0.233333     0            0
C1       C     0.8125       0.216667     0.333333     0
C2       C     0.84375      0.266667     0.333333     0
C3       C     0.8125       0.283333     0.333333     0
C4       C     0.84375      0.233333     0.333333     0
C1       C     0.8125       0.216667     0.666667     0
C2       C     0.84375      0.266667     0.666667     0
C3       C     0.8125       0.283333     0.666667     0
C4       C     0.84375      0.233333     0.666667     0
C1       C     0.8125       0.316667     0            0
C2       C     0.84375      0.366667     0            0
C3       C     0.8125       0.383333     0            0
C4       C     0.84375      0.333333     0            0
C1       C     0.8125       0.316667     0.333333     0
C2       C     0.84375      0.366667     0.333333     0
C3       C     0.8125       0.383333     0.333333     0
C4       C     0.84375      0.333333     0.333333     0
C1       C     0.8125       0.316667     0.666667     0
C2       C     0.84375      0.366667     0.666667     0
C3       C     0.8125       0.383333     0.666667     0
C4       C     0.84375      0.333333     0.666667     0
C1       C     0.8125       0.416667     0            0
C2       C     0.84375      0.466667     0            0
C3       C     0.8125       0.483333     0            0
C4       C     0.84375      0.433333     0            0
C1       C     0.8125       0.416667     0.333333     0
C2       C     0.84375      0.466667     0.333333     0
C3       C     0.8125       0.483333     0.333333     0
C4       C     0.84375      0.433333     0.333333     0
C1       C     0.8125       0.416667     0.666667     0
C2       C     0.84375      0.466667     0.666667     0
C3       C     0.8125       0.483333     0.666667     0
C4       C     0.84375      0.433333     0.666667     0
C1       C     0.8125       0.516667     0            0
C2       C     0.84375      0.566667     0            0
C3       C     0.8125       0.583333     0            0
C4       C     0.84375      0.533333     0            0
C1       C     0.8125       0.516667     0.333333     0
C2       C     0.84375      0.566667     0.333333     0
C3       C     0.8125       0.583333     0.333333     0
C4       C     0.84375      0.533333     0.333333     0
C1       C     0.8125       0.516667     0.666667     0
C2       C     0.84375      0.566667     0.666667     0
C3       C     0.8125       0.583333     0.666667     0
C4       C     0.84375      0.533333     0.666667     0
C1       C     0.8125       0.616667     0            0
C2       C     0.84375      0.666667     0            0
C3       C     0.8125       0.683333     0            0
C4       C     0.84375      0.633333     0            0
C1       C     0.8125       0.616667     0.333333     0
C2       C     0.84375      0.666667     0.333333     0
C3       C     0.8125       0.683333     0.333333     0
C4       C     0.84375      0.633333     0.333333     0
C1       C     0.8125       0.616667     0.666667     0
C2       C     0.84375      0.666667     0.666667     0
C3       C     0.8125       0.683333     0.666667     0
C4       C     0.84375      0.633333     0.666667     0
C1       C     0.8125       0.716667     0            0
C2       C     0.84375      0.766667     0            0
C3       C     0.8125       0.783333     0            0
C4       C     0.84375      0.733333     0            0
C1       C     0.8125       0.716667     0.333333     0
C2       C     0.84375      0.766667     0.333333     0
C3       C     0.8125       0.783333     0.333333     0
C4       C     0.84375      0.733333     0.333333     0
C1       C     0.8125       0.716667     0.666667     0
C2       C     0.84375      0.766667     0.666667     0
C3       C     0.8125       0.783333     0.666667     0
C4       C     0.84375      0.733333     0.666667     0
C1       C     0.8125       0.816667     0            0
C2       C     0.84375      0.866667     0            0
C3       C     0.8125       0.883333     0            0
C4       C     0.84375      0.833333     0            0
C1       C     0.8125       0.816667     0.333333     0
C2       C     0.84375      0.866667     0.333333     0
C3       C     0.8125       0.883333     0.333333     0
C4       C     0.84375      0.833333     0.333333     0
C1       C     0.8125       0.816667     0.666667     0
C2       C     0.84375      0.866667     0.666667     0
C3       C     0.8125       0.883333     0.666667     0
C4       C     0.84375      0.833333     0.666667     0
C1       C     0.8125       0.916667     0            0
C2       C     0.84375      0.966667     0            0
C3       C     0.8125       0.983333     0            0
C4       C     0.84375      0.933333     0            0
C1       C     0.8125       0.916667     0.333333     0
C2       C     0.84375      0.966667     0.333333     0
C3       C     0.8125       0.983333     0.333333     0
C4       C     0.84375      0.933333     0.333333     0
C1       C     0.8125       0.916667     0.666667     0
C2       C     0.84375      0.966667     0.666667     0
C3       C     0.8125       0.983333     0.666667     0
C4       C     0.84375      0.933333     0.666667     0
C1       C     0.875        0.016667     0            0
C2       C     0.90625      0.066667     0            0
C3       C     0.875        0.083333     0            0
C4       C     0.90625      0.033333     0            0
C1       C     0.875        0.016667     0.333333     0
C2       C     0.90625      0.066667     0.333333     0
C3       C     0.875        0.083333     0.333333     0
C4       C     0.90625      0.033333     0.333333     0
C1       C     0.875        0.016667     0.666667     0
C2       C     0.90625      0.066667     0.666667     0
C3       C     0.875        0.083333     0.666667     0
C4       C     0.90625      0.033333     0.666667     0
C1       C     0.875        0.116667     0            0
C2       C     0.90625      0.166667     0            0
C3       C     0.875        0.183333     0            0
C4       C     0.90625      0.133333     0            0
C1       C     0.875        0.116667     0.333333     0
C2       C     0.90625      0.166667     0.333333     0
C3       C     0.875        0.183333     0.333333     0
C4       C     0.90625      0.133333     0.333333     0
C1       C     0.875        0.116667     0.666667     0
C2       C     0.90625      0.166667     0.666667     0
C3       C     0.875        0.183333     0.666667     0
C4       C     0.90625      0.133333     0.666667     0
C1       C     0.875        0.216667     0            0
C2       C     0.90625      0.266667     0            0
C3       C     0.875        0.283333     0            0
C4       C     0.90625      0.233333     0            0
C1       C     0.875        0.216667     0.333333     0
C2       C     0.90625      0.266667     0.333333     0
C3       C     0.875        0.283333     0.333333     0
C4       C     0.90625      0.233333     0.333333     0
C1       C     0.875        0.216667     0.666667     0
C2       C     0.90625      0.266667     0.666667     0
C3       C     0.875        0.283333     0.666667     0
C4       C     0.90625      0.233333     0.666667     0
C1       C     0.875        0.316667     0            0
C2       C     0.90625      0.366667     0            0
C3       C     0.875        0.383333     0            0
C4       C     0.90625      0.333333     0            0
C1       C     0.875        0.316667     0.333333     0
C2       C     0.90625      0.366667     0.333333     0
C3       C     0.875        0.383333     0.333333     0
C4       C     0.90625      0.333333     0.333333     0
C1       C     0.875        0.316667     0.666667     0
C2       C     0.90625      0.366667     0.666667     0
C3       C     0.875        0.383333     0.666667     0
C4       C     0.90625      0.333333     0.666667     0
C1       C     0.875        0.416667     0            0
C2       C     0.90625      0.466667     0            0
C3       C     0.875        0.483333     0            0
C4       C     0.90625      0.433333     0            0
C1       C     0.875        0.416667     0.333333     0
C2       C     0.90625      0.466667     0.333333     0
C3       C     0.875        0.483333     0.333333     0
C4       C     0.90625      0.433333     0.333333     0
C1       C     0.875        0.416667     0.666667     0
C2       C     0.90625      0.466667     0.666667     0
C3       C     0.875        0.483333     0.666667     0
C4       C     0.90625      0.433333     0.666667     0
C1       C     0.875        0.516667     0            0
C2       C     0.90625      0.566667     0            0
C3       C     0.875        0.583333     0            0
C4       C     0.90625      0.533333     0            0
C1       C     0.875        0.516667     0.333333     0
C2       C     0.90625      0.566667     0.333333     0
C3       C     0.875        0.583333     0.333333     0
C4       C     0.90625      0.533333     0.333333     0
C1       C     0.875        0.516667     0.666667     0
C2       C     0.90625      0.566667     0.666667     0
C3       C     0.875        0.583333     0.666667     0
C4       C     0.90625      0.533333     0.666667     0
C1       C     0.875        0.616667     0            0
C2       C     0.90625      0.666667     0            0
C3       C     0.875        0.683333     0            0
C4       C     0.90625      0.633333     0            0
C1       C     0.875        0.616667     0.333333     0
C2       C     0.90625      0.666667     0.333333     0
C3       C     0.875        0.683333     0.333333     0
C4       C     0.90625      0.633333     0.333333     0
C1       C     0.875        0.616667     0.666667     0
C2       C     0.90625      0.666667     0.666667     0
C3       C     0.875        0.683333     0.666667     0
C4       C     0.90625      0.633333     0.666667     0
C1       C     0.875        0.716667     0            0
C2       C     0.90625      0.766667     0            0
C3       C     0.875        0.783333     0            0
C4       C     0.90625      0.733333     0            0
C1       C     0.875        0.716667     0.333333     0
C2       C     0.90625      0.766667     0.333333     0
C3       C     0.875        0.783333     0.333333     0
C4       C     0.90625      0.733333     0.333333     0
C1       C     0.875        0.716667     0.666667     0
C2       C     0.90625      0.766667     0.666667     0
C3       C     0.875        0.783333     0.666667     0
C4       C     0.90625      0.733333     0.666667     0
C1       C     0.875        0.816667     0            0
C2       C     0.90625      0.866667     0            0
C3       C     0.875        0.883333     0            0
C4       C     0.90625      0.833333     0            0
C1       C     0.875        0.816667     0.333333     0
C2       C     0.90625      0.866667     0.333333     0
C3       C     0.875        0.883333     0.333333     0
C4       C     0.90625      0.833333     0.333333     0
C1       C     0.875        0.816667     0.666667     0
C2       C     0.90625      0.866667     0.666667     0
C3       C     0.875        0.883333     0.666667     0
C4       C     0.90625      0.833333     0.666667     0
C1       C     0.875        0.916667     0            0
C2       C     0.90625      0.966667     0            0
C3       C     0.875        0.983333     0            0
C4       C     0.90625      0.933333     0            0
C1       C     0.875        0.916667     0.333333     0
C2       C     0.90625      0.966667     0.333333     0
C3       C     0.875        0.983333     0.333333     0
C4       C     0.90625      0.933333     0.333333     0
C1       C     0.875        0.916667     0.666667     0
C2       C     0.90625      0.966667     0.666667     0
C3       C     0.875        0.983333     0.666667     0
C4       C     0.90625      0.933333     0.666667     0
C1       C     0.9375       0.016667     0            0
C2       C     0.96875      0.066667     0            0
C3       C     0.9375       0.083333     0            0
C4       C     0.96875      0.033333     0            0
C1       C     0.9375       0.016667     0.333333     0
C2       C     0.96875      0.066667     0.333333     0
C3       C     0.9375       0.083333     0.333333     0
C4       C     0.96875      0.033333     0.333333     0
C1       C     0.9375       0.016667     0.666667     0
C2       C     0.96875      0.066667     0.666667     0
C3       C     0.9375       0.083333     0.666667     0
C4       C     0.96875      0.033333     0.666667     0
C1       C     0.9375       0.116667     0            0
C2       C     0.96875      0.166667     0            0
C3       C     0.9375       0.183333     0            0
C4       C     0.96875      0.133333     0            0
C1       C     0.9375       0.116667     0.333333     0
C2       C     0.96875      0.166667     0.333333     0
C3       C     0.9375       0.183333     0.333333     0
C4       C     0.96875      0.133333     0.333333     0
C1       C     0.9375       0.116667     0.666667     0
C2       C     0.96875      0.166667     0.666667     0
C3       C     0.9375       0.183333     0.666667     0
C4       C     0.96875      0.133333     0.666667     0
C1       C     0.9375       0.216667     0            0
C2       C     0.96875      0.266667     0            0
C3       C     0.9375       0.283333     0            0
C4       C     0.96875      0.233333     0            0
C1       C     0.9375       0.216667     0.333333     0
C2       C     0.96875      0.266667     0.333333     0
C3       C     0.9375       0.283333     0.333333     0
C4       C     0.96875      0.233333     0.333333     0
C1       C     0.9375       0.216667     0.666667     0
C2       C     0.96875      0.266667     0.666667     0
C3       C     0.9375       0.283333     0.666667     0
C4       C     0.96875      0.233333     0.666667     0
C1       C     0.9375       0.316667     0            0
C2       C     0.96875      0.366667     0            0
C3       C     0.9375       0.383333     0            0
C4       C     0.96875      0.333333     0            0
C1       C     0.9375       0.316667     0.333333     0
C2       C     0.96875      0.366667     0.333333     0
C3       C     0.9375       0.383333     0.333333     0
C4       C     0.96875      0.333333     0.333333     0
C1       C     0.9375       0.316667     0.666667     0
C2       C     0.96875      0.366667     0.666667     0
C3       C     0.9375       0.383333     0.666667     0
C4       C     0.96875      0.333333     0.666667     0
C1       C     0.9375       0.416667     0            0
C2       C     0.96875      0.466667     0            0
C3       C     0.9375       0.483333     0            0
C4       C     0.96875      0.433333     0            0
C1       C     0.9375       0.416667     0.333333     0
C2       C     0.96875      0.466667     0.333333     0
C3       C     0.9375       0.483333     0.333333     0
C4       C     0.96875      0.433333     0.333333     0
C1       C     0.9375       0.416667     0.666667     0
C2       C     0.96875      0.466667     0.666667     0
C3       C     0.9375       0.483333     0.666667     0
C4       C     0.96875      0.433333     0.666667     0
C1       C     0.9375       0.516667     0            0
C2       C     0.96875      0.566667     0            0
C3       C     0.9375       0.583333     0            0
C4       C     0.96875      0.533333     0            0
C1       C     0.9375       0.516667     0.333333     0
C2       C     0.96875      0.566667     0.333333     0
C3       C     0.9375       0.583333     0.333333     0
C4       C     0.96875      0.533333     0.333333     0
C1       C     0.9375       0.516667     0.666667     0
C2       C     0.96875      0.566667     0.666667     0
C3       C     0.9375       0.583333     0.666667     0
C4       C     0.96875      0.533333     0.666667     0
C1       C     0.9375       0.616667     0            0
C2       C     0.96875      0.666667     0            0
C3       C     0.9375       0.683333     0            0
C4       C     0.96875      0.633333     0            0
C1       C     0.9375       0.616667     0.333333     0
C2       C     0.96875      0.666667     0.333333     0
C3       C     0.9375       0.683333     0.333333     0
C4       C     0.96875      0.633333     0.333333     0
C1       C     0.9375       0.616667     0.666667     0
C2       C     0.96875      0.666667     0.666667     0
C3       C     0.9375       0.683333     0.666667     0
C4       C     0.96875      0.633333     0.666667     0
C1       C     0.9375       0.716667     0            0
C2       C     0.96875      0.766667     0            0
C3       C     0.9375       0.783333     0            0
C4       C     0.96875      0.733333     0            0
C1       C     0.9375       0.716667     0.333333     0
C2       C     0.96875      0.766667     0.333333     0
C3       C     0.9375       0.783333     0.333333     0
C4       C     0.96875      0.733333     0.333333     0
C1       C     0.9375       0.716667     0.666667     0
C2       C     0.96875      0.766667     0.666667     0
C3       C     0.9375       0.783333     0.666667     0
C4       C     0.96875      0.733333     0.666667     0
C1       C     0.9375       0.816667     0            0
C2       C     0.96875      0.866667     0            0
C3       C     0.9375       0.883333     0            0
C4       C     0.96875      0.833333     0            0
C1       C     0.9375       0.816667     0.333333     0
C2       C     0.96875      0.866667     0.333333     0
C3       C     0.9375       0.883333     0.333333     0
C4       C     0.96875      0.833333     0.333333     0
C1       C     0.9375       0.816667     0.666667     0
C2       C     0.96875      0.866667     0.666667     0
C3       C     0.9375       0.883333     0.666667     0
C4       C     0.96875      0.833333     0.666667     0
C1       C     0.9375       0.916667     0            0
C2       C     0.96875      0.966667     0            0
C3       C     0.9375       0.983333     0            0
C4       C     0.96875      0.933333     0            0
C1       C     0.9375       0.916667     0.333333     0
C2       C     0.96875      0.966667     0.333333     0
C3       C     0.9375       0.983333     0.333333     0
C4       C     0.96875      0.933333     0.333333     0
C1       C     0.9375       0.916667     0.666667     0
C2       C     0.96875      0.966667     0.666667     0
C3       C     0.9375       0.983333     0.666667     0
C4       C     0.96875      0.933333     0.666667     0
C1       C     0            0            0.016667     0
C2       C     0.03125      0            0.066667     0
C3       C     0            0            0.083333     0
C4       C     0.03125      0            0.033333     0
C1       C     0            0            0.116667     0
C2       C     0.03125      0            0.166667     0
C3       C     0            0            0.183333     0
C4       C     0.03125      0            0.133333     0
C1       C     0            0            0.216667     0
C2       C     0.03125      0            0.266667     0
C3       C     0            0            0.283333     0
C4       C     0.03125      0            0.233333     0
C1       C     0            0            0.316667     0
C2       C     0.03125      0            0.366667     0
C3       C     0            0            0.383333     0
C4       C     0.03125      0            0.333333     0
C1       C     0            0            0.416667     0
C2       C     0.03125      0            0.466667     0
C3       C     0            0            0.483333     0
C4       C     0.03125      0            0.433333     0
C1       C     0            0            0.516667     0
C2       C     0.03125      0            0.566667     0
C3       C     0            0            0.583333     0
C4       C     0.03125      0            0.533333     0
C1       C     0            0            0.616667     0
C2       C     0.03125      0            0.666667     0
C3       C     0            0            0.683333     0
C4       C     0.03125      0            0.633333     0
C1       C     0            0            0.716667     0
C2       C     0.03125      0            0.766667     0
C3       C     0            0            0.783333     0
C4       C     0.03125      0            0.733333     0
C1       C     0            0            0.816667     0
C2       C     0.03125      0            0.866667     0
C3       C     0            0            0.883333     0
C4       C     0.03125      0            0.833333     0
C1       C     0            0            0.916667     0
C2       C     0.03125      0            0.966667     0
C3       C     0            0            0.983333     0
C4       C     0.03125      0            0.933333     0
C1       C     0            0.333333     0.016667     0
C2       C     0.03125      0.333333     0.066667     0
C3       C     0            0.333333     0.083333     0
C4       C     0.03125      0.333333     0.033333     0
C1       C     0            0.333333     0.116667     0
C2       C     0.03125      0.333333     0.166667     0
C3       C     0            0.333333     0.183333     0
C4       C     0.03125      0.333333     0.133333     0
C1       C     0            0.333333     0.216667     0
C2       C     0.03125      0.333333     0.266667     0
C3       C     0            0.333333     0.283333     0
C4       C     0.03125      0.333333     0.233333     0
C1       C     0            0.333333     0.316667     0
C2       C     0.03125      0.333333     0.366667     0
C3       C     0            0.333333     0.383333     0
C4       C     0.03125      0.333333     0.333333     0
C1       C     0            0.333333     0.416667     0
C2       C     0.03125      0.333333     0.466667     0
C3       C     0            0.333333     0.483333     0
C4       C     0.03125      0.333333     0.433333     0
C1       C     0            0.333333     0.516667     0
C2       C     0.03125      0.333333     0.566667     0
C3       C     0            0.333333     0.583333     0
C4       C     0.03125      0.333333     0.533333     0
C1       C     0            0.333333     0.616667     0
C2       C     0.03125      0.333333     0.666667     0
C3       C     0            0.333333     0.683333     0
C4       C     0.03125      0.333333     0.633333     0
C1       C     0            0.333333     0.716667     0
C2       C     0.03125      0.333333     0.766667     0
C3       C     0            0.333333     0.783333     0
C4       C     0.03125      0.333333     0.733333     0
C1       C     0            0.333333     0.816667     0
C2       C     0.03125      0.333333     0.866667     0
C3       C     0            0.333333     0.883333     0
C4       C     0.03125      0.333333     0.833333     0
C1       C     0            0.333333     0.916667     0
C2       C     0.03125      0.333333     0.966667     0
C3       C     0            0.333333     0.983333     0
C4       C     0.03125      0.333333     0.933333     0
C1       C     0            0.666667     0.016667     0
C2       C     0.03125      0.666667     0.066667     0
C3       C     0            0.666667     0.083333     0
C4       C     0.03125      0.666667     0.033333     0
C1       C     0            0.666667     0.116667     0
C2       C     0.03125      0.666667     0.166667     0
C3       C     0            0.666667     0.183333     0
C4       C     0.03125      0.666667     0.133333     0
C1       C     0            0.666667     0.216667     0
C2       C     0.03125      0.666667     0.266667     0
C3       C     0            0.666667     0.283333     0
C4       C     0.03125      0.666667     0.233333     0
C1       C     0            0.666667     0.316667     0
C2       C     0.03125      0.666667     0.366667     0
C3       C     0            0.666667     0.383333     0
C4       C     0.03125      0.666667     0.333333     0
C1       C     0            0.666667     0.416667     0
C2       C     0.03125      0.666667     0.466667     0
C3       C     0            0.666667     0.483333     0
C4       C     0.03125      0.666667     0.433333     0
C1       C     0            0.666667     0.516667     0
C2       C     0.03125      0.666667     0.566667     0
C3       C     0            0.666667     0.583333     0
C4       C     0.03125      0.666667     0.533333     0
C1       C     0            0.666667     0.616667     0
C2       C     0.03125      0.666667     0.666667     0
C3       C     0            0.666667     0.683333     0
C4       C     0.03125      0.666667     0.633333     0
C1       C     0            0.666667     0.716667     0
C2       C     0.03125      0.666667     0.766667     0
C3       C     0            0.666667     0.783333     0
C4       C     0.03125      0.666667     0.733333     0
C1       C     0            0.666667     0.816667     0
C2       C     0.03125      0.666667     0.866667     0
C3       C     0            0.666667     0.883333     0
C4       C     0.03125      0.666667     0.833333     0
C1       C     0            0.666667     0.916667     0
C2       C     0.03125      0.666667     0.966667     0
C3       C     0            0.666667     0.983333     0
C4       C     0.03125      0.666667     0.933333     0
C1       C     0.0625       0            0.016667     0
C2       C     0.09375      0            0.066667     0
C3       C     0.0625       0            0.083333     0
C4       C     0.09375      0            0.033333     0
C1       C     0.0625       0            0.116667     0
C2       C     0.09375      0            0.166667     0
C3       C     0.0625       0            0.183333     0
C4       C     0.09375      0            0.133333     0
C1       C     0.0625       0            0.216667     0
C2       C     0.09375      0            0.266667     0
C3       C     0.0625       0            0.283333     0
C4       C     0.09375      0            0.233333     0
C1       C     0.0625       0            0.316667     0
C2       C     0.09375      0            0.366667     0
C3       C     0.0625       0            0.383333     0
C4       C     0.09375      0            0.333333     0
C1       C     0.0625       0            0.416667     0
C2       C     0.09375      0            0.466667     0
C3       C     0.0625       0            0.483333     0
C4       C     0.09375      0            0.433333     0
C1       C     0.0625       0            0.516667     0
C2       C     0.09375      0            0.566667     0
C3       C     0.0625       0            0.583333     0
C4       C     0.09375      0            0.533333     0
C1       C     0.0625       0            0.616667     0
C2       C     0.09375      0            0.666667     0
C3       C     0.0625       0            0.683333     0
C4       C     0.09375      0            0.633333     0
C1       C     0.0625       0            0.716667     0
C2       C     0.09375      0            0.766667     0
C3       C     0.0625       0            0.783333     0
C4       C     0.09375      0            0.733333     0
C1       C     0.0625       0            0.816667     0
C2       C     0.09375      0            0.866667     0
C3       C     0.0625       0            0.883333     0
C4       C     0.09375      0            0.833333     0
C1       C     0.0625       0            0.916667     0
C2       C     0.09375      0            0.966667     0
C3       C     0.0625       0            0.983333     0
C4       C     0.09375      0            0.933333     0
C1       C     0.0625       0.333333     0.016667     0
C2       C     0.09375      0.333333     0.066667     0
C3       C     0.0625       0.333333     0.083333     0
C4       C     0.09375      0.333333     0.033333     0
C1       C     0.0625       0.333333     0.116667     0
C2       C     0.09375      0.333333     0.166667     0
C3       C     0.0625       0.333333     0.183333     0
C4       C     0.09375      0.333333     0.133333     0
C1       C     0.0625       0.333333     0.216667     0
C2       C     0.09375      0.333333     0.266667     0
C3       C     0.0625       0.333333     0.283333     0
C4       C     0.09375      0.333333     0.233333     0
C1       C     0.0625       0.333333     0.316667     0
C2       C     0.09375      0.333333     0.366667     0
C3       C     0.0625       0.333333     0.383333     0
C4       C     0.09375      0.333333     0.333333     0
C1       C     0.0625       0.333333     0.416667     0
C2       C     0.09375      0.333333     0.466667     0
C3       C     0.0625       0.333333     0.483333     0
C4       C     0.09375      0.333333     0.433333     0
C1       C     0.0625       0.333333     0.516667     0
C2       C     0.09375      0.333333     0.566667     0
C3       C     0.0625       0.333333     0.583333     0
C4       C     0.09375      0.333333     0.533333     0
C1       C     0.0625       0.333333     0.616667     0
C2       C     0.09375      0.333333     0.666667     0
C3       C     0.0625       0.333333     0.683333     0
C4       C     0.09375      0.333333     0.633333     0
C1       C     0.0625       0.333333     0.716667     0
C2       C     0.09375      0.333333     0.766667     0
C3       C     0.0625       0.333333     0.783333     0
C4       C     0.09375      0.333333     0.733333     0
C1       C     0.0625       0.333333     0.816667     0
C2       C     0.09375      0.333333     0.866667     0
C3       C     0.0625       0.333333     0.883333     0
C4       C     0.09375      0.333333     0.833333     0
C1       C     0.0625       0.333333     0.916667     0
C2       C     0.09375      0.333333     0.966667     0
C3       C     0.0625       0.333333     0.983333     0
C4       C     0.09375      0.333333     0.933333     0
C1       C     0.0625       0.666667     0.016667     0
C2       C     0.09375      0.666667     0.066667     0
C3       C     0.0625       0.666667     0.083333     0
C4       C     0.09375      0.666667     0.033333     0
C1       C     0.0625       0.666667     0.116667     0
C2       C     0.09375      0.666667     0.166667     0
C3       C     0.0625       0.666667     0.183333     0
C4       C     0.09375      0.666667     0.133333     0
C1       C     0.0625       0.666667     0.216667     0
C2       C     0.09375      0.666667     0.266667     0
C3       C     0.0625       0.666667     0.283333     0
C4       C     0.09375      0.666667     0.233333     0
C1       C     0.0625       0.666667     0.316667     0
C2       C     0.09375      0.666667     0.366667     0
C3       C     0.0625       0.666667     0.383333     0
C4       C     0.09375      0.666667     0.333333     0
C1       C     0.0625       0.666667     0.416667     0
C2       C     0.09375      0.666667     0.466667     0
C3       C     0.0625       0.666667     0.483333     0
C4       C     0.09375      0.666667     0.433333     0
C1       C     0.0625       0.666667     0.516667     0
C2       C     0.09375      0.666667     0.566667     0
C3       C     0.0625       0.666667     0.583333     0
C4       C     0.09375      0.666667     0.533333     0
C1       C     0.0625       0.666667     0.616667     0
C2       C     0.09375      0.666667     0.666667     0
C3       C     0.0625       0.666667     0.683333     0
C4       C     0.09375      0.666667     0.633333     0
C1       C     0.0625       0.666667     0.716667     0
C2       C     0.09375      0.666667     0.766667     0
C3       C     0.0625       0.666667     0.783333     0
C4       C     0.09375      0.666667     0.733333     0
C1       C     0.0625       0.666667     0.816667     0
C2       C     0.09375      0.666667     0.866667     0
C3       C     0.0625       0.666667     0.883333     0
C4       C     0.09375      0.666667     0.833333     0
C1       C     0.0625       0.666667     0.916667     0
C2       C     0.09375      0.666667     0.966667     0
C3       C     0.0625       0.666667     0.983333     0
C4       C     0.09375      0.666667     0.933333     0
C1       C     0.125        0            0.016667     0
C2       C     0.15625      0            0.066667     0
C3       C     0.125        0            0.083333     0
C4       C     0.15625      0            0.033333     0
C1       C     0.125        0            0.116667     0
C2       C     0.15625      0            0.166667     0
C3       C     0.125        0            0.183333     0
C4       C     0.15625      0            0.133333     0
C1       C     0.125        0            0.216667     0
C2       C     0.15625      0            0.266667     0
C3       C     0.125        0            0.283333     0
C4       C     0.15625      0            0.233333     0
C1       C     0.125        0            0.316667     0
C2       C     0.15625      0            0.366667     0
C3       C     0.125        0            0.383333     0
C4       C     0.15625      0            0.333333     0
C1       C     0.125        0            0.416667     0
C2       C     0.15625      0            0.466667     0
C3       C     0.125        0            0.483333     0
C4       C     0.15625      0            0.433333     0
C1       C     0.125        0            0.516667     0
C2       C     0.15625      0            0.566667     0
C3       C     0.125        0            0.583333     0
C4       C     0.15625      0            0.533333     0
C1       C     0.125        0            0.616667     0
C2       C     0.15625      0            0.666667     0
C3       C     0.125        0            0.683333     0
C4       C     0.15625      0            0.633333     0
C1       C     0.125        0            0.716667     0
C2       C     0.15625      0            0.766667     0
C3       C     0.125        0            0.783333     0
C4       C     0.15625      0            0.733333     0
C1       C     0.125        0            0.816667     0
C2       C     0.15625      0            0.866667     0
C3       C     0.125        0            0.883333     0
C4       C     0.15625      0            0.833333     0
C1       C     0.125        0            0.916667     0
C2       C     0.15625      0            0.966667     0
C3       C     0.125        0            0.983333     0
C4       C     0.15625      0            0.933333     0
C1       C     0.125        0.333333     0.016667     0
C2       C     0.15625      0.333333     0.066667     0
C3       C     0.125        0.333333     0.083333     0
C4       C     0.15625      0.333333     0.033333     0
C1       C     0.125        0.333333     0.116667     0
C2       C     0.15625      0.333333     0.166667     0
C3       C     0.125        0.333333     0.183333     0
C4       C     0.15625      0.333333     0.133333     0
C1       C     0.125        0.333333     0.216667     0
C2       C     0.15625      0.333333     0.266667     0
C3       C     0.125        0.333333     0.283333     0
C4       C     0.15625      0.333333     0.233333     0
C1       C     0.125        0.333333     0.316667     0
C2       C     0.15625      0.333333     0.366667     0
C3       C     0.125        0.333333     0.383333     0
C4       C     0.15625      0.333333     0.333333     0
C1       C     0.125        0.333333     0.416667     0
C2       C     0.15625      0.333333     0.466667     0
C3       C     0.125        0.333333     0.483333     0
C4       C     0.15625      0.333333     0.433333     0
C1       C     0.125        0.333333     0.516667     0
C2       C     0.15625      0.333333     0.566667     0
C3       C     0.125        0.333333     0.583333     0
C4       C     0.15625      0.333333     0.533333     0
C1       C     0.125        0.333333     0.616667     0
C2       C     0.15625      0.333333     0.666667     0
C3       C     0.125        0.333333     0.683333     0
C4       C     0.15625      0.333333     0.633333     0
C1       C     0.125        0.333333     0.716667     0
C2       C     0.15625      0.333333     0.766667     0
C3       C     0.125        0.333333     0.783333     0
C4       C     0.15625      0.333333     0.733333     0
C1       C     0.125        0.333333     0.816667     0
C2       C     0.15625      0.333333     0.866667     0
C3       C     0.125        0.333333     0.883333     0
C4       C     0.15625      0.333333     0.833333     0
C1       C     0.125        0.333333     0.916667     0
C2       C     0.15625      0.333333     0.966667     0
C3       C     0.125        0.333333     0.983333     0
C4       C     0.15625      0.333333     0.933333     0
C1       C     0.125        0.666667     0.016667     0
C2       C     0.15625      0.666667     0.066667     0
C3       C     0.125        0.666667     0.083333     0
C4       C     0.15625      0.666667     0.033333     0
C1       C     0.125        0.666667     0.116667     0
C2       C     0.15625      0.666667     0.166667     0
C3       C     0.125        0.666667     0.183333     0
C4       C     0.15625      0.666667     0.133333     0
C1       C     0.125        0.666667     0.216667     0
C2       C     0.15625      0.666667     0.266667     0
C3       C     0.125        0.666667     0.283333     0
C4       C     0.15625      0.666667     0.233333     0
C1       C     0.125        0.666667     0.316667     0
C2       C     0.15625      0.666667     0.366667     0
C3       C     0.125        0.666667     0.383333     0
C4       C     0.15625      0.666667     0.333333     0
C1       C     0.125        0.666667     0.416667     0
C2       C     0.15625      0.666667     0.466667     0
C3       C     0.125        0.666667     0.483333     0
C4       C     0.15625      0.666667     0.433333     0
C1       C     0.125        0.666667     0.516667     0
C2       C     0.15625      0.666667     0.566667     0
C3       C     0.125        0.666667     0.583333     0
C4       C     0.15625      0.666667     0.533333     0
C1       C     0.125        0.666667     0.616667     0
C2       C     0.15625      0.666667     0.666667     0
C3       C     0.125        0.666667     0.683333     0
C4       C     0.15625      0.666667     0.633333     0
C1       C     0.125        0.666667     0.716667     0
C2       C     0.15625      0.666667     0.766667     0
C3       C     0.125        0.666667     0.783333     0
C4       C     0.15625      0.666667     0.733333     0
C1       C     0.125        0.666667     0.816667     0
C2       C     0.15625      0.666667     0.866667     0
C3       C     0.125        0.666667     0.883333     0
C4       C     0.15625      0.666667     0.833333     0
C1       C     0.125        0.666667     0.916667     0
C2       C     0.15625      0.666667     0.966667     0
C3       C     0.125        0.666667     0.983333     0
C4       C     0.15625      0.666667     0.933333     0
C1       C     0.1875       0            0.016667     0
C2       C     0.21875      0            0.066667     0
C3       C     0.1875       0            0.083333     0
C4       C     0.21875      0            0.033333     0
C1       C     0.1875       0            0.116667     0
C2       C     0.21875      0            0.166667     0
C3       C     0.1875       0            0.183333     0
C4       C     0.21875      0            0.133333     0
C1       C     0.1875       0            0.216667     0
C2       C     0.21875      0            0.266667     0
C3       C     0.1875       0            0.283333     0
C4       C     0.21875      0            0.233333     0
C1       C     0.1875       0            0.316667     0
C2       C     0.21875      0            0.366667     0
C3       C     0.1875       0            0.383333     0
C4       C     0.21875      0            0.333333     0
C1       C     0.1875       0            0.416667     0
C2       C     0.21875      0            0.466667     0
C3       C     0.1875       0            0.483333     0
C4       C     0.21875      0            0.433333     0
C1       C     0.1875       0            0.516667     0
C2       C     0.21875      0            0.566667     0
C3       C     0.1875       0            0.583333     0
C4       C     0.21875      0            0.533333     0
C1       C     0.1875       0            0.616667     0
C2       C     0.21875      0            0.666667     0
C3       C     0.1875       0            0.683333     0
C4       C     0.21875      0            0.633333     0
C1       C     0.1875       0            0.716667     0
C2       C     0.21875      0            0.766667     0
C3       C     0.1875       0            0.783333     0
C4       C     0.21875      0            0.733333     0
C1       C     0.1875       0            0.816667     0
C2       C     0.21875      0            0.866667     0
C3       C     0.1875       0            0.883333     0
C4       C     0.21875      0            0.833333     0
C1       C     0.1875       0            0.916667     0
C2       C     0.21875      0            0.966667     0
C3       C     0.1875       0            0.983333     0
C4       C     0.21875      0            0.933333     0
C1       C     0.1875       0.333333     0.016667     0
C2       C     0.21875      0.333333     0.066667     0
C3       C     0.1875       0.333333     0.083333     0
C4       C     0.21875      0.333333     0.033333     0
C1       C     0.1875       0.333333     0.116667     0
C2       C     0.21875      0.333333     0.166667     0
C3       C     0.1875       0.333333     0.183333     0
C4       C     0.21875      0.333333     0.133333     0
C1       C     0.1875       0.333333     0.216667     0
C2       C     0.21875      0.333333     0.266667     0
C3       C     0.1875       0.333333     0.283333     0
C4       C     0.21875      0.333333     0.233333     0
C1       C     0.1875       0.333333     0.316667     0
C2       C     0.21875      0.333333     0.366667     0
C3       C     0.1875       0.333333     0.383333     0
C4       C     0.21875      0.333333     0.333333     0
C1       C     0.1875       0.333333     0.416667     0
C2       C     0.21875      0.333333     0.466667     0
C3       C     0.1875       0.333333     0.483333     0
C4       C     0.21875      0.333333     0.433333     0
C1       C     0.1875       0.333333     0.516667     0
C2       C     0.21875      0.333333     0.566667     0
C3       C     0.1875       0.333333     0.583333     0
C4       C     0.21875      0.333333     0.533333     0
C1       C     0.1875       0.333333     0.616667     0
C2       C     0.21875      0.333333     0.666667     0
C3       C     0.1875       0.333333     0.683333     0
C4       C     0.21875      0.333333     0.633333     0
C1       C     0.1875       0.333333     0.716667     0
C2       C     0.21875      0.333333     0.766667     0
C3       C     0.1875       0.333333     0.783333     0
C4       C     0.21875      0.333333     0.733333     0
C1       C     0.1875       0.333333     0.816667     0
C2       C     0.21875      0.333333     0.866667     0
C3       C     0.1875       0.333333     0.883333     0
C4       C     0.21875      0.333333     0.833333     0
C1       C     0.1875       0.333333     0.916667     0
C2       C     0.21875      0.333333     0.966667     0
C3       C     0.1875       0.333333     0.983333     0
C4       C     0.21875      0.333333     0.933333     0
C1       C     0.1875       0.666667     0.016667     0
C2       C     0.21875      0.666667     0.066667     0
C3       C     0.1875       0.666667     0.083333     0
C4       C     0.21875      0.666667     0.033333     0
C1       C     0.1875       0.666667     0.116667     0
C2       C     0.21875      0.666667     0.166667     0
C3       C     0.1875       0.666667     0.183333     0
C4       C     0.21875      0.666667     0.133333     0
C1       C     0.1875       0.666667     0.216667     0
C2       C     0.21875      0.666667     0.266667     0
C3       C     0.1875       0.666667     0.283333     0
C4       C     0.21875      0.666667     0.233333     0
C1       C     0.1875       0.666667     0.316667     0
C2       C     0.21875      0.666667     0.366667     0
C3       C     0.1875       0.666667     0.383333     0
C4       C     0.21875      0.666667     0.333333     0
C1       C     0.1875       0.666667     0.416667     0
C2       C     0.21875      0.666667     0.466667     0
C3       C     0.1875       0.666667     0.483333     0
C4       C     0.21875      0.666667     0.433333     0
C1       C     0.1875       0.666667     0.516667     0
C2       C     0.21875      0.666667     0.566667     0
C3       C     0.1875       0.666667     0.583333     0
C4       C     0.21875      0.666667     0.533333     0
C1       C     0.1875       0.666667     0.616667     0
C2       C     0.21875      0.666667     0.666667     0
C3       C     0.1875       0.666667     0.683333     0
C4       C     0.21875      0.666667     0.633333     0
C1       C     0.1875       0.666667     0.716667     0
C2       C     0.21875      0.666667     0.766667     0
C3       C     0.1875       0.666667     0.783333     0
C4       C     0.21875      0.666667     0.733333     0
C1       C     0.1875       0.666667     0.816667     0
C2       C     0.21875      0.666667     0.866667     0
C3       C     0.1875       0.666667     0.883333     0
C4       C     0.21875      0.666667     0.833333     0
C1       C     0.1875       0.666667     0.916667     0
C2       C     0.21875      0.666667     0.966667     0
C3       C     0.1875       0.666667     0.983333     0
C4       C     0.21875      0.666667     0.933333     0
C1       C     0.25         0            0.016667     0
C2       C     0.28125      0            0.066667     0
C3       C     0.25         0            0.083333     0
C4       C     0.28125      0            0.033333     0
C1       C     0.25         0            0.116667     0
C2       C     0.28125      0            0.166667     0
C3       C     0.25         0            0.183333     0
C4       C     0.28125      0            0.133333     0
C1       C     0.25         0            0.216667     0
C2       C     0.28125      0            0.266667     0
C3       C     0.25         0            0.283333     0
C4       C     0.28125      0            0.233333     0
C1       C     0.25         0            0.316667     0
C2       C     0.28125      0            0.366667     0
C3       C     0.25         0            0.383333     0
C4       C     0.28125      0            0.333333     0
C1       C     0.25         0            0.416667     0
C2       C     0.28125      0            0.466667     0
C3       C     0.25         0            0.483333     0
C4       C     0.28125      0            0.433333     0
C1       C     0.25         0            0.516667     0
C2       C     0.28125      0            0.566667     0
C3       C     0.25         0            0.583333     0
C4       C     0.28125      0            0.533333     0
C1       C     0.25         0            0.616667     0
C2       C     0.28125      0            0.666667     0
C3       C     0.25         0            0.683333     0
C4       C     0.28125      0            0.633333     0
C1       C     0.25         0            0.716667     0
C2       C     0.28125      0            0.766667     0
C3       C     0.25         0            0.783333     0
C4       C     0.28125      0            0.733333     0
C1       C     0.25         0            0.816667     0
C2       C     0.28125      0            0.866667     0
C3       C     0.25         0            0.883333     0
C4       C     0.28125      0            0.833333     0
C1       C     0.25         0            0.916667     0
C2       C     0.28125      0            0.966667     0
C3       C     0.25         0            0.983333     0
C4       C     0.28125      0            0.933333     0
C1       C     0.25         0.333333     0.016667     0
C2       C     0.28125      0.333333     0.066667     0
C3       C     0.25         0.333333     0.083333     0
C4       C     0.28125      0.333333     0.033333     0
C1       C     0.25         0.333333     0.116667     0
C2       C     0.28125      0.333333     0.166667     0
C3       C     0.25         0.333333     0.183333     0
C4       C     0.28125      0.333333     0.133333     0
C1       C     0.25         0.333333     0.216667     0
C2       C     0.28125      0.333333     0.266667     0
C3       C     0.25         0.333333     0.283333     0
C4       C     0.28125      0.333333     0.233333     0
C1       C     0.25         0.333333     0.316667     0
C2       C     0.28125      0.333333     0.366667     0
C3       C     0.25         0.333333     0.383333     0
C4       C     0.28125      0.333333     0.333333     0
C1       C     0.25         0.333333     0.416667     0
C2       C     0.28125      0.333333     0.466667     0
C3       C     0.25         0.333333     0.483333     0
C4       C     0.28125      0.333333     0.433333     0
C1       C     0.25         0.333333     0.516667     0
C2       C     0.28125      0.333333     0.566667     0
C3       C     0.25         0.333333     0.583333     0
C4       C     0.28125      0.333333     0.533333     0
C1       C     0.25         0.333333     0.616667     0
C2       C     0.28125      0.333333     0.666667     0
C3       C     0.25         0.333333     0.683333     0
C4       C     0.28125      0.333333     0.633333     0
C1       C     0.25         0.333333     0.716667     0
C2       C     0.28125      0.333333     0.766667     0
C3       C     0.25         0.333333     0.783333     0
C4       C     0.28125      0.333333     0.733333     0
C1       C     0.25         0.333333     0.816667     0
C2       C     0.28125      0.333333     0.866667     0
C3       C     0.25         0.333333     0.883333     0
C4       C     0.28125      0.333333     0.833333     0
C1       C     0.25         0.333333     0.916667     0
C2       C     0.28125      0.333333     0.966667     0
C3       C     0.25         0.333333     0.983333     0
C4       C     0.28125      0.333333     0.933333     0
C1       C     0.25         0.666667     0.016667     0
C2       C     0.28125      0.666667     0.066667     0
C3       C     0.25         0.666667     0.083333     0
C4       C     0.28125      0.666667     0.033333     0
C1       C     0.25         0.666667     0.116667     0
C2       C     0.28125      0.666667     0.166667     0
C3       C     0.25         0.666667     0.183333     0
C4       C     0.28125      0.666667     0.133333     0
C1       C     0.25         0.666667     0.216667     0
C2       C     0.28125      0.666667     0.266667     0
C3       C     0.25         0.666667     0.283333     0
C4       C     0.28125      0.666667     0.233333     0
C1       C     0.25         0.666667     0.316667     0
C2       C     0.28125      0.666667     0.366667     0
C3       C     0.25         0.666667     0.383333     0
C4       C     0.28125      0.666667     0.333333     0
C1       C     0.25         0.666667     0.416667     0
C2       C     0.28125      0.666667     0.466667     0
C3       C     0.25         0.666667     0.483333     0
C4       C     0.28125      0.666667     0.433333     0
C1       C     0.25         0.666667     0.516667     0
C2       C     0.28125      0.666667     0.566667     0
C3       C     0.25         0.666667     0.583333     0
C4       C     0.28125      0.666667     0.533333     0
C1       C     0.25         0.666667     0.616667     0
C2       C     0.28125      0.666667     0.666667     0
C3       C     0.25         0.666667     0.683333     0
C4       C     0.28125      0.666667     0.633333     0
C1       C     0.25         0.666667     0.716667     0
C2       C     0.28125      0.666667     0.766667     0
C3       C     0.25         0.666667     0.783333     0
C4       C     0.28125      0.666667     0.733333     0
C1       C     0.25         0.666667     0.816667     0
C2       C     0.28125      0.666667     0.866667     0
C3       C     0.25         0.666667     0.883333     0
C4       C     0.28125      0.666667     0.833333     0
C1       C     0.25         0.666667     0.916667     0
C2       C     0.28125      0.666667     0.966667     0
C3       C     0.25         0.666667     0.983333     0
C4       C     0.28125      0.666667     0.933333     0
C1       C     0.3125       0            0.016667     0
C2       C     0.34375      0            0.066667     0
C3       C     0.3125       0            0.083333     0
C4       C     0.34375      0            0.033333     0
C1       C     0.3125       0            0.116667     0
C2       C     0.34375      0            0.166667     0
C3       C     0.3125       0            0.183333     0
C4       C     0.34375      0            0.133333     0
C1       C     0.3125       0            0.216667     0
C2       C     0.34375      0            0.266667     0
C3       C     0.3125       0            0.283333     0
C4       C     0.34375      0            0.233333     0
C1       C     0.3125       0            0.316667     0
C2       C     0.34375      0            0.366667     0
C3       C     0.3125       0            0.383333     0
C4       C     0.34375      0            0.333333     0
C1       C     0.3125       0            0.416667     0
C2       C     0.34375      0            0.466667     0
C3       C     0.3125       0            0.483333     0
C4       C     0.34375      0            0.433333     0
C1       C     0.3125       0            0.516667     0
C2       C     0.34375      0            0.566667     0
C3       C     0.3125       0            0.583333     0
C4       C     0.34375      0            0.533333     0
C1       C     0.3125       0            0.616667     0
C2       C     0.34375      0            0.666667     0
C3       C     0.3125       0            0.683333     0
C4       C     0.34375      0            0.633333     0
C1       C     0.3125       0            0.716667     0
C2       C     0.34375      0            0.766667     0
C3       C     0.3125       0            0.783333     0
C4       C     0.34375      0            0.733333     0
C1       C     0.3125       0            0.816667     0
C2       C     0.34375      0            0.866667     0
C3       C     0.3125       0            0.883333     0
C4       C     0.34375      0            0.833333     0
C1       C     0.3125       0            0.916667     0
C2       C     0.34375      0            0.966667     0
C3       C     0.3125       0            0.983333     0
C4       C     0.34375      0            0.933333     0
C1       C     0.3125       0.333333     0.016667     0
C2       C     0.34375      0.333333     0.066667     0
C3       C     0.3125       0.333333     0.083333     0
C4       C     0.34375      0.333333     0.033333     0
C1       C     0.3125       0.333333     0.116667     0
C2       C     0.34375      0.333333     0.166667     0
C3       C     0.3125       0.333333     0.183333     0
C4       C     0.34375      0.333333     0.133333     0
C1       C     0.3125       0.333333     0.216667     0
C2       C     0.34375      0.333333     0.266667     0
C3       C     0.3125       0.333333     0.283333     0
C4       C     0.34375      0.333333     0.233333     0
C1       C     0.3125       0.333333     0.316667     0
C2       C     0.34375      0.333333     0.366667     0
C3       C     0.3125       0.333333     0.383333     0
C4       C     0.34375      0.333333     0.333333     0
C1       C     0.3125       0.333333     0.416667     0
C2       C     0.34375      0.333333     0.466667     0
C3       C     0.3125       0.333333     0.483333     0
C4       C     0.34375      0.333333     0.433333     0
C1       C     0.3125       0.333333     0.516667     0
C2       C     0.34375      0.333333     0.566667     0
C3       C     0.3125       0.333333     0.583333     0
C4       C     0.34375      0.333333     0.533333     0
C1       C     0.3125       0.333333     0.616667     0
C2       C     0.34375      0.333333     0.666667     0
C3       C     0.3125       0.333333     0.683333     0
C4       C     0.34375      0.333333     0.633333     0
C1       C     0.3125       0.333333     0.716667     0
C2       C     0.34375      0.333333     0.766667     0
C3       C     0.3125       0.333333     0.783333     0
C4       C     0.34375      0.333333     0.733333     0
C1       C     0.3125       0.333333     0.816667     0
C2       C     0.34375      0.333333     0.866667     0
C3       C     0.3125       0.333333     0.883333     0
C4       C     0.34375      0.333333     0.833333     0
C1       C     0.3125       0.333333     0.916667     0
C2       C     0.34375      0.333333     0.966667     0
C3       C     0.3125       0.333333     0.983333     0
C4       C     0.34375      0.333333     0.933333     0
C1       C     0.3125       0.666667     0.016667     0
C2       C     0.34375      0.666667     0.066667     0
C3       C     0.3125       0.666667     0.083333     0
C4       C     0.34375      0.666667     0.033333     0
C1       C     0.3125       0.666667     0.116667     0
C2       C     0.34375      0.666667     0.166667     0
C3       C     0.3125       0.666667     0.183333     0
C4       C     0.34375      0.666667     0.133333     0
C1       C     0.3125       0.666667     0.216667     0
C2       C     0.34375      0.666667     0.266667     0
C3       C     0.3125       0.666667     0.283333     0
C4       C     0.34375      0.666667     0.233333     0
C1       C     0.3125       0.666667     0.316667     0
C2       C     0.34375      0.666667     0.366667     0
C3       C     0.3125       0.666667     0.383333     0
C4       C     0.34375      0.666667     0.333333     0
C1       C     0.3125       0.666667     0.416667     0
C2       C     0.34375      0.666667     0.466667     0
C3       C     0.3125       0.666667     0.483333     0
C4       C     0.34375      0.666667     0.433333     0
C1       C     0.3125       0.666667     0.516667     0
C2       C     0.34375      0.666667     0.566667     0
C3       C     0.3125       0.666667     0.583333     0
C4       C     0.34375      0.666667     0.533333     0
C1       C     0.3125       0.666667     0.616667     0
C2       C     0.34375      0.666667     0.666667     0
C3       C     0.3125       0.666667     0.683333     0
C4       C     0.34375      0.666667     0.633333     0
C1       C     0.3125       0.666667     0.716667     0
C2       C     0.34375      0.666667     0.766667     0
C3       C     0.3125       0.666667     0.783333     0
C4       C     0.34375      0.666667     0.733333     0
C1       C     0.3125       0.666667     0.816667     0
C2       C     0.34375      0.666667     0.866667     0
C3       C     0.3125       0.666667     0.883333     0
C4       C     0.34375      0.666667     0.833333     0
C1       C     0.3125       0.666667     0.916667     0
C2       C     0.34375      0.666667     0.966667     0
C3       C     0.3125       0.666667     0.983333     0
C4       C     0.34375      0.666667     0.933333     0
C1       C     0.375        0            0.016667     0
C2       C     0.40625      0            0.066667     0
C3       C     0.375        0            0.083333     0
C4       C     0.40625      0            0.033333     0
C1       C     0.375        0            0.116667     0
C2       C     0.40625      0            0.166667     0
C3       C     0.375        0            0.183333     0
C4       C     0.40625      0            0.133333     0
C1       C     0.375        0            0.216667     0
C2       C     0.40625      0            0.266667     0
C3       C     0.375        0            0.283333     0
C4       C     0.40625      0            0.233333     0
C1       C     0.375        0            0.316667     0
C2       C     0.40625      0            0.366667     0
C3       C     0.375        0            0.383333     0
C4       C     0.40625      0            0.333333     0
C1       C     0.375        0            0.416667     0
C2       C     0.40625      0            0.466667     0
C3       C     0.375        0            0.483333     0
C4       C     0.40625      0            0.433333     0
C1       C     0.375        0            0.516667     0
C2       C     0.40625      0            0.566667     0
C3       C     0.375        0            0.583333     0
C4       C     0.40625      0            0.533333     0
C1       C     0.375        0            0.616667     0
C2       C     0.40625      0            0.666667     0
C3       C     0.375        0            0.683333     0
C4       C     0.40625      0            0.633333     0
C1       C     0.375        0            0.716667     0
C2       C     0.40625      0            0.766667     0
C3       C     0.375        0            0.783333     0
C4       C     0.40625      0            0.733333     0
C1       C     0.375        0            0.816667     0
C2       C     0.40625      0            0.866667     0
C3       C     0.375        0            0.883333     0
C4       C     0.40625      0            0.833333     0
C1       C     0.375        0            0.916667     0
C2       C     0.40625      0            0.966667     0
C3       C     0.375        0            0.983333     0
C4       C     0.40625      0            0.933333     0
C1       C     0.375        0.333333     0.016667     0
C2       C     0.40625      0.333333     0.066667     0
C3       C     0.375        0.333333     0.083333     0
C4       C     0.40625      0.333333     0.033333     0
C1       C     0.375        0.333333     0.116667     0
C2       C     0.40625      0.333333     0.166667     0
C3       C     0.375        0.333333     0.183333     0
C4       C     0.40625      0.333333     0.133333     0
C1       C     0.375        0.333333     0.216667     0
C2       C     0.40625      0.333333     0.266667     0
C3       C     0.375        0.333333     0.283333     0
C4       C     0.40625      0.333333     0.233333     0
C1       C     0.375        0.333333     0.316667     0
C2       C     0.40625      0.333333     0.366667     0
C3       C     0.375        0.333333     0.383333     0
C4       C     0.40625      0.333333     0.333333     0
C1       C     0.375        0.333333     0.416667     0
C2       C     0.40625      0.333333     0.466667     0
C3       C     0.375        0.333333     0.483333     0
C4       C     0.40625      0.333333     0.433333     0
C1       C     0.375        0.333333     0.516667     0
C2       C     0.40625      0.333333     0.566667     0
C3       C     0.375        0.333333     0.583333     0
C4       C     0.40625      0.333333     0.533333     0
C1       C     0.375        0.333333     0.616667     0
C2       C     0.40625      0.333333     0.666667     0
C3       C     0.375        0.333333     0.683333     0
C4       C     0.40625      0.333333     0.633333     0
C1       C     0.375        0.333333     0.716667     0
C2       C     0.40625      0.333333     0.766667     0
C3       C     0.375        0.333333     0.783333     0
C4       C     0.40625      0.333333     0.733333     0
C1       C     0.375        0.333333     0.816667     0
C2       C     0.40625      0.333333     0.866667     0
C3       C     0.375        0.333333     0.883333     0
C4       C     0.40625      0.333333     0.833333     0
C1       C     0.375        0.333333     0.916667     0
C2       C     0.40625      0.333333     0.966667     0
C3       C     0.375        0.333333     0.983333     0
C4       C     0.40625      0.333333     0.933333     0
C1       C     0.375        0.666667     0.016667     0
C2       C     0.40625      0.666667     0.066667     0
C3       C     0.375        0.666667     0.083333     0
C4       C     0.40625      0.666667     0.033333     0
C1       C     0.375        0.666667     0.116667     0
C2       C     0.40625      0.666667     0.166667     0
C3       C     0.375        0.666667     0.183333     0
C4       C     0.40625      0.666667     0.133333     0
C1       C     0.375        0.666667     0.216667     0
C2       C     0.40625      0.666667     0.266667     0
C3       C     0.375        0.666667     0.283333     0
C4       C     0.40625      0.666667     0.233333     0
C1       C     0.375        0.666667     0.316667     0
C2       C     0.40625      0.666667     0.366667     0
C3       C     0.375        0.666667     0.383333     0
C4       C     0.40625      0.666667     0.333333     0
C1       C     0.375        0.666667     0.416667     0
C2       C     0.40625      0.666667     0.466667     0
C3       C     0.375        0.666667     0.483333     0
C4       C     0.40625      0.666667     0.433333     0
C1       C     0.375        0.666667     0.516667     0
C2       C     0.40625      0.666667     0.566667     0
C3       C     0.375        0.666667     0.583333     0
C4       C     0.40625      0.666667     0.533333     0
C1       C     0.375        0.666667     0.616667     0
C2       C     0.40625      0.666667     0.666667     0
C3       C     0.375        0.666667     0.683333     0
C4       C     0.40625      0.666667     0.633333     0
C1       C     0.375        0.666667     0.716667     0
C2       C     0.40625      0.666667     0.766667     0
C3       C     0.375        0.666667     0.783333     0
C4       C     0.40625      0.666667     0.733333     0
C1       C     0.375        0.666667     0.816667     0
C2       C     0.40625      0.666667     0.866667     0
C3       C     0.375        0.666667     0.883333     0
C4       C     0.40625      0.666667     0.833333     0
C1       C     0.375        0.666667     0.916667     0
C2       C     0.40625      0.666667     0.966667     0
C3       C     0.375        0.666667     0.983333     0
C4       C     0.40625      0.666667     0.933333     0
C1       C     0.4375       0            0.016667     0
C2       C     0.46875      0            0.066667     0
C3       C     0.4375       0            0.083333     0
C4       C     0.46875      0            0.033333     0
C1       C     0.4375       0            0.116667     0
C2       C     0.46875      0            0.166667     0
C3       C     0.4375       0            0.183333     0
C4       C     0.46875      0            0.133333     0
C1       C     0.4375       0            0.216667     0
C2       C     0.46875      0            0.266667     0
C3       C     0.4375       0            0.283333     0
C4       C     0.46875      0            0.233333     0
C1       C     0.4375       0            0.316667     0
C2       C     0.46875      0            0.366667     0
C3       C     0.4375       0            0.383333     0
C4       C     0.46875      0            0.333333     0
C1       C     0.4375       0            0.416667     0
C2       C     0.46875      0            0.466667     0
C3       C     0.4375       0            0.483333     0
C4       C     0.46875      0            0.433333     0
C1       C     0.4375       0            0.516667     0
C2       C     0.46875      0            0.566667     0
C3       C     0.4375       0            0.583333     0
C4       C     0.46875      0            0.533333     0
C1       C     0.4375       0            0.616667     0
C2       C     0.46875      0            0.666667     0
C3       C     0.4375       0            0.683333     0
C4       C     0.46875      0            0.633333     0
C1       C     0.4375       0            0.716667     0
C2       C     0.46875      0            0.766667     0
C3       C     0.4375       0            0.783333     0
C4       C     0.46875      0            0.733333     0
C1       C     0.4375       0            0.816667     0
C2       C     0.46875      0            0.866667     0
C3       C     0.4375       0            0.883333     0
C4       C     0.46875      0            0.833333     0
C1       C     0.4375       0            0.916667     0
C2       C     0.46875      0            0.966667     0
C3       C     0.4375       0            0.983333     0
C4       C     0.46875      0            0.933333     0
C1       C     0.4375       0.333333     0.016667     0
C2       C     0.46875      0.333333     0.066667     0
C3       C     0.4375       0.333333     0.083333     0
C4       C     0.46875      0.333333     0.033333     0
C1       C     0.4375       0.333333     0.116667     0
C2       C     0.46875      0.333333     0.166667     0
C3       C     0.4375       0.333333     0.183333     0
C4       C     0.46875      0.333333     0.133333     0
C1       C     0.4375       0.333333     0.216667     0
C2       C     0.46875      0.333333     0.266667     0
C3       C     0.4375       0.333333     0.283333     0
C4       C     0.46875      0.333333     0.233333     0
C1       C     0.4375       0.333333     0.316667     0
C2       C     0.46875      0.333333     0.366667     0
C3       C     0.4375       0.333333     0.383333     0
C4       C     0.46875      0.333333     0.333333     0
C1       C     0.4375       0.333333     0.416667     0
C2       C     0.46875      0.333333     0.466667     0
C3       C     0.4375       0.333333     0.483333     0
C4       C     0.46875      0.333333     0.433333     0
C1       C     0.4375       0.333333     0.516667     0
C2       C     0.46875      0.333333     0.566667     0
C3       C     0.4375       0.333333     0.583333     0
C4       C     0.46875      0.333333     0.533333     0
C1       C     0.4375       0.333333     0.616667     0
C2       C     0.46875      0.333333     0.666667     0
C3       C     0.4375       0.333333     0.683333     0
C4       C     0.46875      0.333333     0.633333     0
C1       C     0.4375       0.333333     0.716667     0
C2       C     0.46875      0.333333     0.766667     0
C3       C     0.4375       0.333333     0.783333     0
C4       C     0.46875      0.333333     0.733333     0
C1       C     0.4375       0.333333     0.816667     0
C2       C     0.46875      0.333333     0.866667     0
C3       C     0.4375       0.333333     0.883333     0
C4       C     0.46875      0.333333     0.833333     0
C1       C     0.4375       0.333333     0.916667     0
C2       C     0.46875      0.333333     0.966667     0
C3       C     0.4375       0.333333     0.983333     0
C4       C     0.46875      0.333333     0.933333     0
C1       C     0.4375       0.666667     0.016667     0
C2       C     0.46875      0.666667     0.066667     0
C3       C     0.4375       0.666667     0.083333     0
C4       C     0.46875      0.666667     0.033333     0
C1       C     0.4375       0.666667     0.116667     0
C2       C     0.46875      0.666667     0.166667     0
C3       C     0.4375       0.666667     0.183333     0
C4       C     0.46875      0.666667     0.133333     0
C1       C     0.4375       0.666667     0.216667     0
C2       C     0.46875      0.666667     0.266667     0
C3       C     0.4375       0.666667     0.283333     0
C4       C     0.46875      0.666667     0.233333     0
C1       C     0.4375       0.666667     0.316667     0
C2       C     0.46875      0.666667     0.366667     0
C3       C     0.4375       0.666667     0.383333     0
C4       C     0.46875      0.666667     0.333333     0
C1       C     0.4375       0.666667     0.416667     0
C2       C     0.46875      0.666667     0.466667     0
C3       C     0.4375       0.666667     0.483333     0
C4       C     0.46875      0.666667     0.433333     0
C1       C     0.4375       0.666667     0.516667     0
C2       C     0.46875      0.666667     0.566667     0
C3       C     0.4375       0.666667     0.583333     0
C4       C     0.46875      0.666667     0.533333     0
C1       C     0.4375       0.666667     0.616667     0
C2       C     0.46875      0.666667     0.666667     0
C3       C     0.4375       0.666667     0.683333     0
C4       C     0.46875      0.666667     0.633333     0
C1       C     0.4375       0.666667     0.716667     0
C2       C     0.46875      0.666667     0.766667     0
C3       C     0.4375       0.666667     0.783333     0
C4       C     0.46875      0.666667     0.733333     0
C1       C     0.4375       0.666667     0.816667     0
C2       C     0.46875      0.666667     0.866667     0
C3       C     0.4375       0.666667     0.883333     0
C4       C     0.46875      0.666667     0.833333     0
C1       C     0.4375       0.666667     0.916667     0
C2       C     0.46875      0.666667     0.966667     0
C3       C     0.4375       0.666667     0.983333     0
C4       C     0.46875      0.666667     0.933333     0
C1       C     0.5          0            0.016667     0
C2       C     0.53125      0            0.066667     0
C3       C     0.5          0            0.083333     0
C4       C     0.53125      0            0.033333     0
C1       C     0.5          0            0.116667     0
C2       C     0.53125      0            0.166667     0
C3       C     0.5          0            0.183333     0
C4       C     0.53125      0            0.133333     0
C1       C     0.5          0            0.216667     0
C2       C     0.53125      0            0.266667     0
C3       C     0.5          0            0.283333     0
C4       C     0.53125      0            0.233333     0
C1       C     0.5          0            0.316667     0
C2       C     0.53125      0            0.366667     0
C3       C     0.5          0            0.383333     0
C4       C     0.53125      0            0.333333     0
C1       C     0.5          0            0.416667     0
C2       C     0.53125      0            0.466667     0
C3       C     0.5          0            0.483333     0
C4       C     0.53125      0            0.433333     0
C1       C     0.5          0            0.516667     0
C2       C     0.53125      0            0.566667     0
C3       C     0.5          0            0.583333     0
C4       C     0.53125      0            0.533333     0
C1       C     0.5          0            0.616667     0
C2       C     0.53125      0            0.666667     0
C3       C     0.5          0            0.683333     0
C4       C     0.53125      0            0.633333     0
C1       C     0.5          0            0.716667     0
C2       C     0.53125      0            0.766667     0
C3       C     0.5          0            0.783333     0
C4       C     0.53125      0            0.733333     0
C1       C     0.5          0            0.816667     0
C2       C     0.53125      0            0.866667     0
C3       C     0.5          0            0.883333     0
C4       C     0.53125      0            0.833333     0
C1       C     0.5          0            0.916667     0
C2       C     0.53125      0            0.966667     0
C3       C     0.5          0            0.983333     0
C4       C     0.53125      0            0.933333     0
C1       C     0.5          0.333333     0.016667     0
C2       C     0.53125      0.333333     0.066667     0
C3       C     0.5          0.333333     0.083333     0
C4       C     0.53125      0.333333     0.033333     0
C1       C     0.5          0.333333     0.116667     0
C2       C     0.53125      0.333333     0.166667     0
C3       C     0.5          0.333333     0.183333     0
C4       C     0.53125      0.333333     0.133333     0
C1       C     0.5          0.333333     0.216667     0
C2       C     0.53125      0.333333     0.266667     0
C3       C     0.5          0.333333     0.283333     0
C4       C     0.53125      0.333333     0.233333     0
C1       C     0.5          0.333333     0.316667     0
C2       C     0.53125      0.333333     0.366667     0
C3       C     0.5          0.333333     0.383333     0
C4       C     0.53125      0.333333     0.333333     0
C1       C     0.5          0.333333     0.416667     0
C2       C     0.53125      0.333333     0.466667     0
C3       C     0.5          0.333333     0.483333     0
C4       C     0.53125      0.333333     0.433333     0
C1       C     0.5          0.333333     0.516667     0
C2       C     0.53125      0.333333     0.566667     0
C3       C     0.5          0.333333     0.583333     0
C4       C     0.53125      0.333333     0.533333     0
C1       C     0.5          0.333333     0.616667     0
C2       C     0.53125      0.333333     0.666667     0
C3       C     0.5          0.333333     0.683333     0
C4       C     0.53125      0.333333     0.633333     0
C1       C     0.5          0.333333     0.716667     0
C2       C     0.53125      0.333333     0.766667     0
C3       C     0.5          0.333333     0.783333     0
C4       C     0.53125      0.333333     0.733333     0
C1       C     0.5          0.333333     0.816667     0
C2       C     0.53125      0.333333     0.866667     0
C3       C     0.5          0.333333     0.883333     0
C4       C     0.53125      0.333333     0.833333     0
C1       C     0.5          0.333333     0.916667     0
C2       C     0.53125      0.333333     0.966667     0
C3       C     0.5          0.333333     0.983333     0
C4       C     0.53125      0.333333     0.933333     0
C1       C     0.5          0.666667     0.016667     0
C2       C     0.53125      0.666667     0.066667     0
C3       C     0.5          0.666667     0.083333     0
C4       C     0.53125      0.666667     0.033333     0
C1       C     0.5          0.666667     0.116667     0
C2       C     0.53125      0.666667     0.166667     0
C3       C     0.5          0.666667     0.183333     0
C4       C     0.53125      0.666667     0.133333     0
C1       C     0.5          0.666667     0.216667     0
C2       C     0.53125      0.666667     0.266667     0
C3       C     0.5          0.666667     0.283333     0
C4       C     0.53125      0.666667     0.233333     0
C1       C     0.5          0.666667     0.316667     0
C2       C     0.53125      0.666667     0.366667     0
C3       C     0.5          0.666667     0.383333     0
C4       C     0.53125      0.666667     0.333333     0
C1       C     0.5          0.666667     0.416667     0
C2       C     0.53125      0.666667     0.466667     0
C3       C     0.5          0.666667     0.483333     0
C4       C     0.53125      0.666667     0.433333     0
C1       C     0.5          0.666667     0.516667     0
C2       C     0.53125      0.666667     0.566667     0
C3       C     0.5          0.666667     0.583333     0
C4       C     0.53125      0.666667     0.533333     0
C1       C     0.5          0.666667     0.616667     0
C2       C     0.53125      0.666667     0.666667     0
C3       C     0.5          0.666667     0.683333     0
C4       C     0.53125      0.666667     0.633333     0
C1       C     0.5          0.666667     0.716667     0
C2       C     0.53125      0.666667     0.766667     0
C3       C     0.5          0.666667     0.783333     0
C4       C     0.53125      0.666667     0.733333     0
C1       C     0.5          0.666667     0.816667     0
C2       C     0.53125      0.666667     0.866667     0
C3       C     0.5          0.666667     0.883333     0
C4       C     0.53125      0.666667     0.833333     0
C1       C     0.5          0.666667     0.916667     0
C2       C     0.53125      0.666667     0.966667     0
C3       C     0.5          0.666667     0.983333     0
C4       C     0.53125      0.666667     0.933333     0
C1       C     0.5625       0            0.016667     0
C2       C     0.59375      0            0.066667     0
C3       C     0.5625       0            0.083333     0
C4       C     0.59375      0            0.033333     0
C1       C     0.5625       0            0.116667     0
C2       C     0.59375      0            0.166667     0
C3       C     0.5625       0            0.183333     0
C4       C     0.59375      0            0.133333     0
C1       C     0.5625       0            0.216667     0
C2       C     0.59375      0            0.266667     0
C3       C     0.5625       0            0.283333     0
C4       C     0.59375      0            0.233333     0
C1       C     0.5625       0            0.316667     0
C2       C     0.59375      0            0.366667     0
C3       C     0.5625       0            0.383333     0
C4       C     0.59375      0            0.333333     0
C1       C     0.5625       0            0.416667     0
C2       C     0.59375      0            0.466667     0
C3       C     0.5625       0            0.483333     0
C4       C     0.59375      0            0.433333     0
C1       C     0.5625       0            0.516667     0
C2       C     0.59375      0            0.566667     0
C3       C     0.5625       0            0.583333     0
C4       C     0.59375      0            0.533333     0
C1       C     0.5625       0            0.616667     0
C2       C     0.59375      0            0.666667     0
C3       C     0.5625       0            0.683333     0
C4       C     0.59375      0            0.633333     0
C1       C     0.5625       0            0.716667     0
C2       C     0.59375      0            0.766667     0
C3       C     0.5625       0            0.783333     0
C4       C     0.59375      0            0.733333     0
C1       C     0.5625       0            0.816667     0
C2       C     0.59375      0            0.866667     0
C3       C     0.5625       0            0.883333     0
C4       C     0.59375      0            0.833333     0
C1       C     0.5625       0            0.916667     0
C2       C     0.59375      0            0.966667     0
C3       C     0.5625       0            0.983333     0
C4       C     0.59375      0            0.933333     0
C1       C     0.5625       0.333333     0.016667     0
C2       C     0.59375      0.333333     0.066667     0
C3       C     0.5625       0.333333     0.083333     0
C4       C     0.59375      0.333333     0.033333     0
C1       C     0.5625       0.333333     0.116667     0
C2       C     0.59375      0.333333     0.166667     0
C3       C     0.5625       0.333333     0.183333     0
C4       C     0.59375      0.333333     0.133333     0
C1       C     0.5625       0.333333     0.216667     0
C2       C     0.59375      0.333333     0.266667     0
C3       C     0.5625       0.333333     0.283333     0
C4       C     0.59375      0.333333     0.233333     0
C1       C     0.5625       0.333333     0.316667     0
C2       C     0.59375      0.333333     0.366667     0
C3       C     0.5625       0.333333     0.383333     0
C4       C     0.59375      0.333333     0.333333     0
C1       C     0.5625       0.333333     0.416667     0
C2       C     0.59375      0.333333     0.466667     0
C3       C     0.5625       0.333333     0.483333     0
C4       C     0.59375      0.333333     0.433333     0
C1       C     0.5625       0.333333     0.516667     0
C2       C     0.59375      0.333333     0.566667     0
C3       C     0.5625       0.333333     0.583333     0
C4       C     0.59375      0.333333     0.533333     0
C1       C     0.5625       0.333333     0.616667     0
C2       C     0.59375      0.333333     0.666667     0
C3       C     0.5625       0.333333     0.683333     0
C4       C     0.59375      0.333333     0.633333     0
C1       C     0.5625       0.333333     0.716667     0
C2       C     0.59375      0.333333     0.766667     0
C3       C     0.5625       0.333333     0.783333     0
C4       C     0.59375      0.333333     0.733333     0
C1       C     0.5625       0.333333     0.816667     0
C2       C     0.59375      0.333333     0.866667     0
C3       C     0.5625       0.333333     0.883333     0
C4       C     0.59375      0.333333     0.833333     0
C1       C     0.5625       0.333333     0.916667     0
C2       C     0.59375      0.333333     0.966667     0
C3       C     0.5625       0.333333     0.983333     0
C4       C     0.59375      0.333333     0.933333     0
C1       C     0.5625       0.666667     0.016667     0
C2       C     0.59375      0.666667     0.066667     0
C3       C     0.5625       0.666667     0.083333     0
C4       C     0.59375      0.666667     0.033333     0
C1       C     0.5625       0.666667     0.116667     0
C2       C     0.59375      0.666667     0.166667     0
C3       C     0.5625       0.666667     0.183333     0
C4       C     0.59375      0.666667     0.133333     0
C1       C     0.5625       0.666667     0.216667     0
C2       C     0.59375      0.666667     0.266667     0
C3       C     0.5625       0.666667     0.283333     0
C4       C     0.59375      0.666667     0.233333     0
C1       C     0.5625       0.666667     0.316667     0
C2       C     0.59375      0.666667     0.366667     0
C3       C     0.5625       0.666667     0.383333     0
C4       C     0.59375      0.666667     0.333333     0
C1       C     0.5625       0.666667     0.416667     0
C2       C     0.59375      0.666667     0.466667     0
C3       C     0.5625       0.666667     0.483333     0
C4       C     0.59375      0.666667     0.433333     0
C1       C     0.5625       0.666667     0.516667     0
C2       C     0.59375      0.666667     0.566667     0
C3       C     0.5625       0.666667     0.583333     0
C4       C     0.59375      0.666667     0.533333     0
C1       C     0.5625       0.666667     0.616667     0
C2       C     0.59375      0.666667     0.666667     0
C3       C     0.5625       0.666667     0.683333     0
C4       C     0.59375      0.666667     0.633333     0
C1       C     0.5625       0.666667     0.716667     0
C2       C     0.59375      0.666667     0.766667     0
C3       C     0.5625       0.666667     0.783333     0
C4       C     0.59375      0.666667     0.733333     0
C1       C     0.5625       0.666667     0.816667     0
C2       C     0.59375      0.666667     0.866667     0
C3       C     0.5625       0.666667     0.883333     0
C4       C     0.59375      0.666667     0.833333     0
C1       C     0.5625       0.666667     0.916667     0
C2       C     0.59375      0.666667     0.966667     0
C3       C     0.5625       0.666667     0.983333     0
C4       C     0.59375      0.666667     0.933333     0
C1       C     0.625        0            0.016667     0
C2       C     0.65625      0            0.066667     0
C3       C     0.625        0            0.083333     0
C4       C     0.65625      0            0.033333     0
C1       C     0.625        0            0.116667     0
C2       C     0.65625      0            0.166667     0
C3       C     0.625        0            0.183333     0
C4       C     0.65625      0            0.133333     0
C1       C     0.625        0            0.216667     0
C2       C     0.65625      0            0.266667     0
C3       C     0.625        0            0.283333     0
C4       C     0.65625      0            0.233333     0
C1       C     0.625        0            0.316667     0
C2       C     0.65625      0            0.366667     0
C3       C     0.625        0            0.383333     0
C4       C     0.65625      0            0.333333     0
C1       C     0.625        0            0.416667     0
C2       C     0.65625      0            0.466667     0
C3       C     0.625        0            0.483333     0
C4       C     0.65625      0            0.433333     0
C1       C     0.625        0            0.516667     0
C2       C     0.65625      0            0.566667     0
C3       C     0.625        0            0.583333     0
C4       C     0.65625      0            0.533333     0
C1       C     0.625        0            0.616667     0
C2       C     0.65625      0            0.666667     0
C3       C     0.625        0            0.683333     0
C4       C     0.65625      0            0.633333     0
C1       C     0.625        0            0.716667     0
C2       C     0.65625      0            0.766667     0
C3       C     0.625        0            0.783333     0
C4       C     0.65625      0            0.733333     0
C1       C     0.625        0            0.816667     0
C2       C     0.65625      0            0.866667     0
C3       C     0.625        0            0.883333     0
C4       C     0.65625      0            0.833333     0
C1       C     0.625        0            0.916667     0
C2       C     0.65625      0            0.966667     0
C3       C     0.625        0            0.983333     0
C4       C     0.65625      0            0.933333     0
C1       C     0.625        0.333333     0.016667     0
C2       C     0.65625      0.333333     0.066667     0
C3       C     0.625        0.333333     0.083333     0
C4       C     0.65625      0.333333     0.033333     0
C1       C     0.625        0.333333     0.116667     0
C2       C     0.65625      0.333333     0.166667     0
C3       C     0.625        0.333333     0.183333     0
C4       C     0.65625      0.333333     0.133333     0
C1       C     0.625        0.333333     0.216667     0
C2       C     0.65625      0.333333     0.266667     0
C3       C     0.625        0.333333     0.283333     0
C4       C     0.65625      0.333333     0.233333     0
C1       C     0.625        0.333333     0.316667     0
C2       C     0.65625      0.333333     0.366667     0
C3       C     0.625        0.333333     0.383333     0
C4       C     0.65625      0.333333     0.333333     0
C1       C     0.625        0.333333     0.416667     0
C2       C     0.65625      0.333333     0.466667     0
C3       C     0.625        0.333333     0.483333     0
C4       C     0.65625      0.333333     0.433333     0
C1       C     0.625        0.333333     0.516667     0
C2       C     0.65625      0.333333     0.566667     0
C3       C     0.625        0.333333     0.583333     0
C4       C     0.65625      0.333333     0.533333     0
C1       C     0.625        0.333333     0.616667     0
C2       C     0.65625      0.333333     0.666667     0
C3       C     0.625        0.333333     0.683333     0
C4       C     0.65625      0.333333     0.633333     0
C1       C     0.625        0.333333     0.716667     0
C2       C     0.65625      0.333333     0.766667     0
C3       C     0.625        0.333333     0.783333     0
C4       C     0.65625      0.333333     0.733333     0
C1       C     0.625        0.333333     0.816667     0
C2       C     0.65625      0.333333     0.866667     0
C3       C     0.625        0.333333     0.883333     0
C4       C     0.65625      0.333333     0.833333     0
C1       C     0.625        0.333333     0.916667     0
C2       C     0.65625      0.333333     0.966667     0
C3       C     0.625        0.333333     0.983333     0
C4       C     0.65625      0.333333     0.933333     0
C1       C     0.625        0.666667     0.016667     0
C2       C     0.65625      0.666667     0.066667     0
C3       C     0.625        0.666667     0.083333     0
C4       C     0.65625      0.666667     0.033333     0
C1       C     0.625        0.666667     0.116667     0
C2       C     0.65625      0.666667     0.166667     0
C3       C     0.625        0.666667     0.183333     0
C4       C     0.65625      0.666667     0.133333     0
C1       C     0.625        0.666667     0.216667     0
C2       C     0.65625      0.666667     0.266667     0
C3       C     0.625        0.666667     0.283333     0
C4       C     0.65625      0.666667     0.233333     0
C1       C     0.625        0.666667     0.316667     0
C2       C     0.65625      0.666667     0.366667     0
C3       C     0.625        0.666667     0.383333     0
C4       C     0.65625      0.666667     0.333333     0
C1       C     0.625        0.666667     0.416667     0
C2       C     0.65625      0.666667     0.466667     0
C3       C     0.625        0.666667     0.483333     0
C4       C     0.65625      0.666667     0.433333     0
C1       C     0.625        0.666667     0.516667     0
C2       C     0.65625      0.666667     0.566667     0
C3       C     0.625        0.666667     0.583333     0
C4       C     0.65625      0.666667     0.533333     0
C1       C     0.625        0.666667     0.616667     0
C2       C     0.65625      0.666667     0.666667     0
C3       C     0.625        0.666667     0.683333     0
C4       C     0.65625      0.666667     0.633333     0
C1       C     0.625        0.666667     0.716667     0
C2       C     0.65625      0.666667     0.766667     0
C3       C     0.625        0.666667     0.783333     0
C4       C     0.65625      0.666667     0.733333     0
C1       C     0.625        0.666667     0.816667     0
C2       C     0.65625      0.666667     0.866667     0
C3       C     0.625        0.666667     0.883333     0
C4       C     0.65625      0.666667     0.833333     0
C1       C     0.625        0.666667     0.916667     0
C2       C     0.65625      0.666667     0.966667     0
C3       C     0.625        0.666667     0.983333     0
C4       C     0.65625      0.666667     0.933333     0
C1       C     0.6875       0            0.016667     0
C2       C     0.71875      0            0.066667     0
C3       C     0.6875       0            0.083333     0
C4       C     0.71875      0            0.033333     0
C1       C     0.6875       0            0.116667     0
C2       C     0.71875      0            0.166667     0
C3       C     0.6875       0            0.183333     0
C4       C     0.71875      0            0.133333     0
C1       C     0.6875       0            0.216667     0
C2       C     0.71875      0            0.266667     0
C3       C     0.6875       0            0.283333     0
C4       C     0.71875      0            0.233333     0
C1       C     0.6875       0            0.316667     0
C2       C     0.71875      0            0.366667     0
C3       C     0.6875       0            0.383333     0
C4       C     0.71875      0            0.333333     0
C1       C     0.6875       0            0.416667     0
C2       C     0.71875      0            0.466667     0
C3       C     0.6875       0            0.483333     0
C4       C     0.71875      0            0.433333     0
C1       C     0.6875       0            0.516667     0
C2       C     0.71875      0            0.566667     0
C3       C     0.6875       0            0.583333     0
C4       C     0.71875      0            0.533333     0
C1       C     0.6875       0            0.616667     0
C2       C     0.71875      0            0.666667     0
C3       C     0.6875       0            0.683333     0
C4       C     0.71875      0            0.633333     0
C1       C     0.6875       0            0.716667     0
C2       C     0.71875      0            0.766667     0
C3       C     0.6875       0            0.783333     0
C4       C     0.71875      0            0.733333     0
C1       C     0.6875       0            0.816667     0
C2       C     0.71875      0            0.866667     0
C3       C     0.6875       0            0.883333     0
C4       C     0.71875      0            0.833333     0
C1       C     0.6875       0            0.916667     0
C2       C     0.71875      0            0.966667     0
C3       C     0.6875       0            0.983333     0
C4       C     0.71875      0            0.933333     0
C1       C     0.6875       0.333333     0.016667     0
C2       C     0.71875      0.333333     0.066667     0
C3       C     0.6875       0.333333     0.083333     0
C4       C     0.71875      0.333333     0.033333     0
C1       C     0.6875       0.333333     0.116667     0
C2       C     0.71875      0.333333     0.166667     0
C3       C     0.6875       0.333333     0.183333     0
C4       C     0.71875      0.333333     0.133333     0
C1       C     0.6875       0.333333     0.216667     0
C2       C     0.71875      0.333333     0.266667     0
C3       C     0.6875       0.333333     0.283333     0
C4       C     0.71875      0.333333     0.233333     0
C1       C     0.6875       0.333333     0.316667     0
C2       C     0.71875      0.333333     0.366667     0
C3       C     0.6875       0.333333     0.383333     0
C4       C     0.71875      0.333333     0.333333     0
C1       C     0.6875       0.333333     0.416667     0
C2       C     0.71875      0.333333     0.466667     0
C3       C     0.6875       0.333333     0.483333     0
C4       C     0.71875      0.333333     0.433333     0
C1       C     0.6875       0.333333     0.516667     0
C2       C     0.71875      0.333333     0.566667     0
C3       C     0.6875       0.333333     0.583333     0
C4       C     0.71875      0.333333     0.533333     0
C1       C     0.6875       0.333333     0.616667     0
C2       C     0.71875      0.333333     0.666667     0
C3       C     0.6875       0.333333     0.683333     0
C4       C     0.71875      0.333333     0.633333     0
C1       C     0.6875       0.333333     0.716667     0
C2       C     0.71875      0.333333     0.766667     0
C3       C     0.6875       0.333333     0.783333     0
C4       C     0.71875      0.333333     0.733333     0
C1       C     0.6875       0.333333     0.816667     0
C2       C     0.71875      0.333333     0.866667     0
C3       C     0.6875       0.333333     0.883333     0
C4       C     0.71875      0.333333     0.833333     0
C1       C     0.6875       0.333333     0.916667     0
C2       C     0.71875      0.333333     0.966667     0
C3       C     0.6875       0.333333     0.983333     0
C4       C     0.71875      0.333333     0.933333     0
C1       C     0.6875       0.666667     0.016667     0
C2       C     0.71875      0.666667     0.066667     0
C3       C     0.6875       0.666667     0.083333     0
C4       C     0.71875      0.666667     0.033333     0
C1       C     0.6875       0.666667     0.116667     0
C2       C     0.71875      0.666667     0.166667     0
C3       C     0.6875       0.666667     0.183333     0
C4       C     0.71875      0.666667     0.133333     0
C1       C     0.6875       0.666667     0.216667     0
C2       C     0.71875      0.666667     0.266667     0
C3       C     0.6875       0.666667     0.283333     0
C4       C     0.71875      0.666667     0.233333     0
C1       C     0.6875       0.666667     0.316667     0
C2       C     0.71875      0.666667     0.366667     0
C3       C     0.6875       0.666667     0.383333     0
C4       C     0.71875      0.666667     0.333333     0
C1       C     0.6875       0.666667     0.416667     0
C2       C     0.71875      0.666667     0.466667     0
C3       C     0.6875       0.666667     0.483333     0
C4       C     0.71875      0.666667     0.433333     0
C1       C     0.6875       0.666667     0.516667     0
C2       C     0.71875      0.666667     0.566667     0
C3       C     0.6875       0.666667     0.583333     0
C4       C     0.71875      0.666667     0.533333     0
C1       C     0.6875       0.666667     0.616667     0
C2       C     0.71875      0.666667     0.666667     0
C3       C     0.6875       0.666667     0.683333     0
C4       C     0.71875      0.666667     0.633333     0
C1       C     0.6875       0.666667     0.716667     0
C2       C     0.71875      0.666667     0.766667     0
C3       C     0.6875       0.666667     0.783333     0
C4       C     0.71875      0.666667     0.733333     0
C1       C     0.6875       0.666667     0.816667     0
C2       C     0.71875      0.666667     0.866667     0
C3       C     0.6875       0.666667     0.883333     0
C4       C     0.71875      0.666667     0.833333     0
C1       C     0.6875       0.666667     0.916667     0
C2       C     0.71875      0.666667     0.966667     0
C3       C     0.6875       0.666667     0.983333     0
C4       C     0.71875      0.666667     0.933333     0
C1       C     0.75         0            0.016667     0
C2       C     0.78125      0            0.066667     0
C3       C     0.75         0            0.083333     0
C4       C     0.78125      0            0.033333     0
C1       C     0.75         0            0.116667     0
C2       C     0.78125      0            0.166667     0
C3       C     0.75         0            0.183333     0
C4       C     0.78125      0            0.133333     0
C1       C     0.75         0            0.216667     0
C2       C     0.78125      0            0.266667     0
C3       C     0.75         0            0.283333     0
C4       C     0.78125      0            0.233333     0
C1       C     0.75         0            0.316667     0
C2       C     0.78125      0            0.366667     0
C3       C     0.75         0            0.383333     0
C4       C     0.78125      0            0.333333     0
C1       C     0.75         0            0.416667     0
C2       C     0.78125      0            0.466667     0
C3       C     0.75         0            0.483333     0
C4       C     0.78125      0            0.433333     0
C1       C     0.75         0            0.516667     0
C2       C     0.78125      0            0.566667     0
C3       C     0.75         0            0.583333     0
C4       C     0.78125      0            0.533333     0
C1       C     0.75         0            0.616667     0
C2       C     0.78125      0            0.666667     0
C3       C     0.75         0            0.683333     0
C4       C     0.78125      0            0.633333     0
C1       C     0.75         0            0.716667     0
C2       C     0.78125      0            0.766667     0
C3       C     0.75         0            0.783333     0
C4       C     0.78125      0            0.733333     0
C1       C     0.75         0            0.816667     0
C2       C     0.78125      0            0.866667     0
C3       C     0.75         0            0.883333     0
C4       C     0.78125      0            0.833333     0
C1       C     0.75         0            0.916667     0
C2       C     0.78125      0            0.966667     0
C3       C     0.75         0            0.983333     0
C4       C     0.78125      0            0.933333     0
C1       C     0.75         0.333333     0.016667     0
C2       C     0.78125      0.333333     0.066667     0
C3       C     0.75         0.333333     0.083333     0
C4       C     0.78125      0.333333     0.033333     0
C1       C     0.75         0.333333     0.116667     0
C2       C     0.78125      0.333333     0.166667     0
C3       C     0.75         0.333333     0.183333     0
C4       C     0.78125      0.333333     0.133333     0
C1       C     0.75         0.333333     0.216667     0
C2       C     0.78125      0.333333     0.266667     0
C3       C     0.75         0.333333     0.283333     0
C4       C     0.78125      0.333333     0.233333     0
C1       C     0.75         0.333333     0.316667     0
C2       C     0.78125      0.333333     0.366667     0
C3       C     0.75         0.333333     0.383333     0
C4       C     0.78125      0.333333     0.333333     0
C1       C     0.75         0.333333     0.416667     0
C2       C     0.78125      0.333333     0.466667     0
C3       C     0.75         0.333333     0.483333     0
C4       C     0.78125      0.333333     0.433333     0
C1       C     0.75         0.333333     0.516667     0
C2       C     0.78125      0.333333     0.566667     0
C3       C     0.75         0.333333     0.583333     0
C4       C     0.78125      0.333333     0.533333     0
C1       C     0.75         0.333333     0.616667     0
C2       C     0.78125      0.333333     0.666667     0
C3       C     0.75         0.333333     0.683333     0
C4       C     0.78125      0.333333     0.633333     0
C1       C     0.75         0.333333     0.716667     0
C2       C     0.78125      0.333333     0.766667     0
C3       C     0.75         0.333333     0.783333     0
C4       C     0.78125      0.333333     0.733333     0
C1       C     0.75         0.333333     0.816667     0
C2       C     0.78125      0.333333     0.866667     0
C3       C     0.75         0.333333     0.883333     0
C4       C     0.78125      0.333333     0.833333     0
C1       C     0.75         0.333333     0.916667     0
C2       C     0.78125      0.333333     0.966667     0
C3       C     0.75         0.333333     0.983333     0
C4       C     0.78125      0.333333     0.933333     0
C1       C     0.75         0.666667     0.016667     0
C2       C     0.78125      0.666667     0.066667     0
C3       C     0.75         0.666667     0.083333     0
C4       C     0.78125      0.666667     0.033333     0
C1       C     0.75         0.666667     0.116667     0
C2       C     0.78125      0.666667     0.166667     0
C3       C     0.75         0.666667     0.183333     0
C4       C     0.78125      0.666667     0.133333     0
C1       C     0.75         0.666667     0.216667     0
C2       C     0.78125      0.666667     0.266667     0
C3       C     0.75         0.666667     0.283333     0
C4       C     0.78125      0.666667     0.233333     0
C1       C     0.75         0.666667     0.316667     0
C2       C     0.78125      0.666667     0.366667     0
C3       C     0.75         0.666667     0.383333     0
C4       C     0.78125      0.666667     0.333333     0
C1       C     0.75         0.666667     0.416667     0
C2       C     0.78125      0.666667     0.466667     0
C3       C     0.75         0.666667     0.483333     0
C4       C     0.78125      0.666667     0.433333     0
C1       C     0.75         0.666667     0.516667     0
C2       C     0.78125      0.666667     0.566667     0
C3       C     0.75         0.666667     0.583333     0
C4       C     0.78125      0.666667     0.533333     0
C1       C     0.75         0.666667     0.616667     0
C2       C     0.78125      0.666667     0.666667     0
C3       C     0.75         0.666667     0.683333     0
C4       C     0.78125      0.666667     0.633333     0
C1       C     0.75         0.666667     0.716667     0
C2       C     0.78125      0.666667     0.766667     0
C3       C     0.75         0.666667     0.783333     0
C4       C     0.78125      0.666667     0.733333     0
C1       C     0.75         0.666667     0.816667     0
C2       C     0.78125      0.666667     0.866667     0
C3       C     0.75         0.666667     0.883333     0
C4       C     0.78125      0.666667     0.833333     0
C1       C     0.75         0.666667     0.916667     0
C2       C     0.78125      0.666667     0.966667     0
C3       C     0.75         0.666667     0.983333     0
C4       C     0.78125      0.666667     0.933333     0
C1       C     0.8125       0            0.016667     0
C2       C     0.84375      0            0.066667     0
C3       C     0.8125       0            0.083333     0
C4       C     0.84375      0            0.033333     0
C1       C     0.8125       0            0.116667     0
C2       C     0.84375      0            0.166667     0
C3       C     0.8125       0            0.183333     0
C4       C     0.84375      0            0.133333     0
C1       C     0.8125       0            0.216667     0
C2       C     0.84375      0            0.266667     0
C3       C     0.8125       0            0.283333     0
C4       C     0.84375      0            0.233333     0
C1       C     0.8125       0            0.316667     0
C2       C     0.84375      0            0.366667     0
C3       C     0.8125       0            0.383333     0
C4       C     0.84375      0            0.333333     0
C1       C     0.8125       0            0.416667     0
C2       C     0.84375      0            0.466667     0
C3       C     0.8125       0            0.483333     0
C4       C     0.84375      0            0.433333     0
C1       C     0.8125       0            0.516667     0
C2       C     0.84375      0            0.566667     0
C3       C     0.8125       0            0.583333     0
C4       C     0.84375      0            0.533333     0
C1       C     0.8125       0            0.616667     0
C2       C     0.84375      0            0.666667     0
C3       C     0.8125       0            0.683333     0
C4       C     0.84375      0            0.633333     0
C1       C     0.8125       0            0.716667     0
C2       C     0.84375      0            0.766667     0
C3       C     0.8125       0            0.783333     0
C4       C     0.84375      0            0.733333     0
C1       C     0.8125       0            0.816667     0
C2       C     0.84375      0            0.866667     0
C3       C     0.8125       0            0.883333     0
C4       C     0.84375      0            0.833333     0
C1       C     0.8125       0            0.916667     0
C2       C     0.84375      0            0.966667     0
C3       C     0.8125       0            0.983333     0
C4       C     0.84375      0            0.933333     0
C1       C     0.8125       0.333333     0.016667     0
C2       C     0.84375      0.333333     0.066667     0
C3       C     0.8125       0.333333     0.083333     0
C4       C     0.84375      0.333333     0.033333     0
C1       C     0.8125       0.333333     0.116667     0
C2       C     0.84375      0.333333     0.166667     0
C3       C     0.8125       0.333333     0.183333     0
C4       C     0.84375      0.333333     0.133333     0
C1       C     0.8125       0.333333     0.216667     0
C2       C     0.84375      0.333333     0.266667     0
C3       C     0.8125       0.333333     0.283333     0
C4       C     0.84375      0.333333     0.233333     0
C1       C     0.8125       0.333333     0.316667     0
C2       C     0.84375      0.333333     0.366667     0
C3       C     0.8125       0.333333     0.383333     0
C4       C     0.84375      0.333333     0.333333     0
C1       C     0.8125       0.333333     0.416667     0
C2       C     0.84375      0.333333     0.466667     0
C3       C     0.8125       0.333333     0.483333     0
C4       C     0.84375      0.333333     0.433333     0
C1       C     0.8125       0.333333     0.516667     0
C2       C     0.84375      0.333333     0.566667     0
C3       C     0.8125       0.333333     0.583333     0
C4       C     0.84375      0.333333     0.533333     0
C1       C     0.8125       0.333333     0.616667     0
C2       C     0.84375      0.333333     0.666667     0
C3       C     0.8125       0.333333     0.683333     0
C4       C     0.84375      0.333333     0.633333     0
C1       C     0.8125       0.333333     0.716667     0
C2       C     0.84375      0.333333     0.766667     0
C3       C     0.8125       0.333333     0.783333     0
C4       C     0.84375      0.333333     0.733333     0
C1       C     0.8125       0.333333     0.816667     0
C2       C     0.84375      0.333333     0.866667     0
C3       C     0.8125       0.333333     0.883333     0
C4       C     0.84375      0.333333     0.833333     0
C1       C     0.8125       0.333333     0.916667     0
C2       C     0.84375      0.333333     0.966667     0
C3       C     0.8125       0.333333     0.983333     0
C4       C     0.84375      0.333333     0.933333     0
C1       C     0.8125       0.666667     0.016667     0
C2       C     0.84375      0.666667     0.066667     0
C3       C     0.8125       0.666667     0.083333     0
C4       C     0.84375      0.666667     0.033333     0
C1       C     0.8125       0.666667     0.116667     0
C2       C     0.84375      0.666667     0.166667     0
C3       C     0.8125       0.666667     0.183333     0
C4       C     0.84375      0.666667     0.133333     0
C1       C     0.8125       0.666667     0.216667     0
C2       C     0.84375      0.666667     0.266667     0
C3       C     0.8125       0.666667     0.283333     0
C4       C     0.84375      0.666667     0.233333     0
C1       C     0.8125       0.666667     0.316667     0
C2       C     0.84375      0.666667     0.366667     0
C3       C     0.8125       0.666667     0.383333     0
C4       C     0.84375      0.666667     0.333333     0
C1       C     0.8125       0.666667     0.416667     0
C2       C     0.84375      0.666667     0.466667     0
C3       C     0.8125       0.666667     0.483333     0
C4       C     0.84375      0.666667     0.433333     0
C1       C     0.8125       0.666667     0.516667     0
C2       C     0.84375      0.666667     0.566667     0
C3       C     0.8125       0.666667     0.583333     0
C4       C     0.84375      0.666667     0.533333     0
C1       C     0.8125       0.666667     0.616667     0
C2       C     0.84375      0.666667     0.666667     0
C3       C     0.8125       0.666667     0.683333     0
C4       C     0.84375      0.666667     0.633333     0
C1       C     0.8125       0.666667     0.716667     0
C2       C     0.84375      0.666667     0.766667     0
C3       C     0.8125       0.666667     0.783333     0
C4       C     0.84375      0.666667     0.733333     0
C1       C     0.8125       0.666667     0.816667     0
C2       C     0.84375      0.666667     0.866667     0
C3       C     0.8125       0.666667     0.883333     0
C4       C     0.84375      0.666667     0.833333     0
C1       C     0.8125       0.666667     0.916667     0
C2       C     0.84375      0.666667     0.966667     0
C3       C     0.8125       0.666667     0.983333     0
C4       C     0.84375      0.666667     0.933333     0
C1       C     0.875        0            0.016667     0
C2       C     0.90625      0            0.066667     0
C3       C     0.875        0            0.083333     0
C4       C     0.90625      0            0.033333     0
C1       C     0.875        0            0.116667     0
C2       C     0.90625      0            0.166667     0
C3       C     0.875        0            0.183333     0
C4       C     0.90625      0            0.133333     0
C1       C     0.875        0            0.216667     0
C2       C     0.90625      0            0.266667     0
C3       C     0.875        0            0.283333     0
C4       C     0.90625      0            0.233333     0
C1       C     0.875        0            0.316667     0
C2       C     0.90625      0            0.366667     0
C3       C     0.875        0            0.383333     0
C4       C     0.90625      0            0.333333     0
C1       C     0.875        0            0.416667     0
C2       C     0.90625      0            0.466667     0
C3       C     0.875        0            0.483333     0
C4       C     0.90625      0            0.433333     0
C1       C     0.875        0            0.516667     0
C2       C     0.90625      0            0.566667     0
C3       C     0.875        0            0.583333     0
C4       C     0.90625      0            0.533333     0
C1       C     0.875        0            0.616667     0
C2       C     0.90625      0            0.666667     0
C3       C     0.875        0            0.683333     0
C4       C     0.90625      0            0.633333     0
C1       C     0.875        0            0.716667     0
C2       C     0.90625      0            0.766667     0
C3       C     0.875        0            0.783333     0
C4       C     0.90625      0            0.733333     0
C1       C     0.875        0            0.816667     0
C2       C     0.90625      0            0.866667     0
C3       C     0.875        0            0.883333     0
C4       C     0.90625      0            0.833333     0
C1       C     0.875        0            0.916667     0
C2       C     0.90625      0            0.966667     0
C3       C     0.875        0            0.983333     0
C4       C     0.90625      0            0.933333     0
C1       C     0.875        0.333333     0.016667     0
C2       C     0.90625      0.333333     0.066667     0
C3       C     0.875        0.333333     0.083333     0
C4       C     0.90625      0.333333     0.033333     0
C1       C     0.875        0.333333     0.116667     0
C2       C     0.90625      0.333333     0.166667     0
C3       C     0.875        0.333333     0.183333     0
C4       C     0.90625      0.333333     0.133333     0
C1       C     0.875        0.333333     0.216667     0
C2       C     0.90625      0.333333     0.266667     0
C3       C     0.875        0.333333     0.283333     0
C4       C     0.90625      0.333333     0.233333     0
C1       C     0.875        0.333333     0.316667     0
C2       C     0.90625      0.333333     0.366667     0
C3       C     0.875        0.333333     0.383333     0
C4       C     0.90625      0.333333     0.333333     0
C1       C     0.875        0.333333     0.416667     0
C2       C     0.90625      0.333333     0.466667     0
C3       C     0.875        0.333333     0.483333     0
C4       C     0.90625      0.333333     0.433333     0
C1       C     0.875        0.333333     0.516667     0
C2       C     0.90625      0.333333     0.566667     0
C3       C     0.875        0.333333     0.583333     0
C4       C     0.90625      0.333333     0.533333     0
C1       C     0.875        0.333333     0.616667     0
C2       C     0.90625      0.333333     0.666667     0
C3       C     0.875        0.333333     0.683333     0
C4       C     0.90625      0.333333     0.633333     0
C1       C     0.875        0.333333     0.716667     0
C2       C     0.90625      0.333333     0.766667     0
C3       C     0.875        0.333333     0.783333     0
C4       C     0.90625      0.333333     0.733333     0
C1       C     0.875        0.333333     0.816667     0
C2       C     0.90625      0.333333     0.866667     0
C3       C     0.875        0.333333     0.883333     0
C4       C     0.90625      0.333333     0.833333     0
C1       C     0.875        0.333333     0.916667     0
C2       C     0.90625      0.333333     0.966667     0
C3       C     0.875        0.333333     0.983333     0
C4       C     0.90625      0.333333     0.933333     0
C1       C     0.875        0.666667     0.016667     0
C2       C     0.90625      0.666667     0.066667     0
C3       C     0.875        0.666667     0.083333     0
C4       C     0.90625      0.666667     0.033333     0
C1       C     0.875        0.666667     0.116667     0
C2       C     0.90625      0.666667     0.166667     0
C3       C     0.875        0.666667     0.183333     0
C4       C     0.90625      0.666667     0.133333     0
C1       C     0.875        0.666667     0.216667     0
C2       C     0.90625      0.666667     0.266667     0
C3       C     0.875        0.666667     0.283333     0
C4       C     0.90625      0.666667     0.233333     0
C1       C     0.875        0.666667     0.316667     0
C2       C     0.90625      0.666667     0.366667     0
C3       C     0.875        0.666667     0.383333     0
C4       C     0.90625      0.666667     0.333333     0
C1       C     0.875        0.666667     0.416667     0
C2       C     0.90625      0.666667     0.466667     0
C3       C     0.875        0.666667     0.483333     0
C4       C     0.90625      0.666667     0.433333     0
C1       C     0.875        0.666667     0.516667     0
C2       C     0.90625      0.666667     0.566667     0
C3       C     0.875        0.666667     0.583333     0
C4       C     0.90625      0.666667     0.533333     0
C1       C     0.875        0.666667     0.616667     0
C2       C     0.90625      0.666667     0.666667     0
C3       C     0.875        0.666667     0.683333     0
C4       C     0.90625      0.666667     0.633333     0
C1       C     0.875        0.666667     0.716667     0
C2       C     0.90625      0.666667     0.766667     0
C3       C     0.875        0.666667     0.783333     0
C4       C     0.90625      0.666667     0.733333     0
C1       C     0.875        0.666667     0.816667     0
C2       C     0.90625      0.666667     0.866667     0
C3       C     0.875        0.666667     0.883333     0
C4       C     0.90625      0.666667     0.833333     0
C1       C     0.875        0.666667     0.916667     0
C2       C     0.90625      0.666667     0.966667     0
C3       C     0.875        0.666667     0.983333     0
C4       C     0.90625      0.666667     0.933333     0
C1       C     0.9375       0            0.016667     0
C2       C     0.96875      0            0.066667     0
C3       C     0.9375       0            0.083333     0
C4       C     0.96875      0            0.033333     0
C1       C     0.9375       0            0.116667     0
C2       C     0.96875      0            0.166667     0
C3       C     0.9375       0            0.183333     0
C4       C     0.96875      0            0.133333     0
C1       C     0.9375       0            0.216667     0
C2       C     0.96875      0            0.266667     0
C3       C     0.9375       0            0.283333     0
C4       C     0.96875      0            0.233333     0
C1       C     0.9375       0            0.316667     0
C2       C     0.96875      0            0.366667     0
C3       C     0.9375       0            0.383333     0
C4       C     0.96875      0            0.333333     0
C1       C     0.9375       0            0.416667     0
C2       C     0.96875      0            0.466667     0
C3       C     0.9375       0            0.483333     0
C4       C     0.96875      0            0.433333     0
C1       C     0.9375       0            0.516667     0
C2       C     0.96875      0            0.566667     0
C3       C     0.9375       0            0.583333     0
C4       C     0.96875      0            0.533333     0
C1       C     0.9375       0            0.616667     0
C2       C     0.96875      0            0.666667     0
C3       C     0.9375       0            0.683333     0
C4       C     0.96875      0            0.633333     0
C1       C     0.9375       0            0.716667     0
C2       C     0.96875      0            0.766667     0
C3       C     0.9375       0            0.783333     0
C4       C     0.96875      0            0.733333     0
C1       C     0.9375       0            0.816667     0
C2       C     0.96875      0            0.866667     0
C3       C     0.9375       0            0.883333     0
C4       C     0.96875      0            0.833333     0
C1       C     0.9375       0            0.916667     0
C2       C     0.96875      0            0.966667     0
C3       C     0.9375       0            0.983333     0
C4       C     0.96875      0            0.933333     0
C1       C     0.9375       0.333333     0.016667     0
C2       C     0.96875      0.333333     0.066667     0
C3       C     0.9375       0.333333     0.083333     0
C4       C     0.96875      0.333333     0.033333     0
C1       C     0.9375       0.333333     0.116667     0
C2       C     0.96875      0.333333     0.166667     0
C3       C     0.9375       0.333333     0.183333     0
C4       C     0.96875      0.333333     0.133333     0
C1       C     0.9375       0.333333     0.216667     0
C2       C     0.96875      0.333333     0.266667     0
C3       C     0.9375       0.333333     0.283333     0
C4       C     0.96875      0.333333     0.233333     0
C1       C     0.9375       0.333333     0.316667     0
C2       C     0.96875      0.333333     0.366667     0
C3       C     0.9375       0.333333     0.383333     0
C4       C     0.96875      0.333333     0.333333     0
C1       C     0.9375       0.333333     0.416667     0
C2       C     0.96875      0.333333     0.466667     0
C3       C     0.9375       0.333333     0.483333     0
C4       C     0.96875      0.333333     0.433333     0
C1       C     0.9375       0.333333     0.516667     0
C2       C     0.96875      0.333333     0.566667     0
C3       C     0.9375       0.333333     0.583333     0
C4       C     0.96875      0.333333     0.533333     0
C1       C     0.9375       0.333333     0.616667     0
C2       C     0.96875      0.333333     0.666667     0
C3       C     0.9375       0.333333     0.683333     0
C4       C     0.96875      0.333333     0.633333     0
C1       C     0.9375       0.333333     0.716667     0
C2       C     0.96875      0.333333     0.766667     0
C3       C     0.9375       0.333333     0.783333     0
C4       C     0.96875      0.333333     0.733333     0
C1       C     0.9375       0.333333     0.816667     0
C2       C     0.96875      0.333333     0.866667     0
C3       C     0.9375       0.333333     0.883333     0
C4       C     0.96875      0.333333     0.833333     0
C1       C     0.9375       0.333333     0.916667     0
C2       C     0.96875      0.333333     0.966667     0
C3       C     0.9375       0.333333     0.983333     0
C4       C     0.96875      0.333333     0.933333     0
C1       C     0.9375       0.666667     0.016667     0
C2       C     0.96875      0.666667     0.066667     0
C3       C     0.9375       0.666667     0.083333     0
C4       C     0.96875      0.666667     0.033333     0
C1       C     0.9375       0.666667     0.116667     0
C2       C     0.96875      0.666667     0.166667     0
C3       C     0.9375       0.666667     0.183333     0
C4       C     0.96875      0.666667     0.133333     0
C1       C     0.9375       0.666667     0.216667     0
C2       C     0.96875      0.666667     0.266667     0
C3       C     0.9375       0.666667     0.283333     0
C4       C     0.96875      0.666667     0.233333     0
C1       C     0.9375       0.666667     0.316667     0
C2       C     0.96875      0.666667     0.366667     0
C3       C     0.9375       0.666667     0.383333     0
C4       C     0.96875      0.666667     0.333333     0
C1       C     0.9375       0.666667     0.416667     0
C2       C     0.96875      0.666667     0.466667     0
C3       C     0.9375       0.666667     0.483333     0
C4       C     0.96875      0.666667     0.433333     0
C1       C     0.9375       0.666667     0.516667     0
C2       C     0.96875      0.666667     0.566667     0
C3       C     0.9375       0.666667     0.583333     0
C4       C     0.96875      0.666667     0.533333     0
C1       C     0.9375       0.666667     0.616667     0
C2       C     0.96875      0.666667     0.666667     0
C3       C     0.9375       0.666667     0.683333     0
C4       C     0.96875      0.666667     0.633333     0
C1       C     0.9375       0.666667     0.716667     0
C2       C     0.96875      0.666667     0.766667     0
C3       C     0.9375       0.666667     0.783333     0
C4       C     0.96875      0.666667     0.733333     0
C1       C     0.9375       0.666667     0.816667     0
C2       C     0.96875      0.666667     0.866667     0
C3       C     0.9375       0.666667     0.883333     0
C4       C     0.96875      0.666667     0.833333     0
C1       C     0.9375       0.666667     0.916667     0
C2       C     0.96875      0.666667     0.966667     0
C3       C     0.9375       0.666667     0.983333     0
C4       C     0.96875      0.666667     0.933333     0


