data_graphite_ortho

_audit_creation_method RASPA-1.0
_audit_creation_date 2012-2-3
_audit_author_name 'David Dubbeldam'

_cell_length_a    39.36
_cell_length_b    51.12
_cell_length_c    51.12
_cell_angle_alpha 90
_cell_angle_beta  90
_cell_angle_gamma 90
_cell_volume      102858

_symmetry_cell_setting          triclinic
_symmetry_space_group_name_Hall 'P 1'
_symmetry_space_group_name_H-M  'P 1'
_symmetry_Int_Tables_number     1

_symmetry_equiv_pos_as_xyz 'x,y,z'

loop_
_atom_site_label
_atom_site_type_symbol
_atom_site_fract_x
_atom_site_fract_y
_atom_site_fract_z
_atom_site_charge
C1       C     0            0.0138892    0            0
C2       C     0.03125      0.0555558    0            0
C3       C     0            0.0694442    0            0
C4       C     0.03125      0.0277775    0            0
C1       C     0            0.0138892    0.333333     0
C2       C     0.03125      0.0555558    0.333333     0
C3       C     0            0.0694442    0.333333     0
C4       C     0.03125      0.0277775    0.333333     0
C1       C     0            0.0138892    0.666667     0
C2       C     0.03125      0.0555558    0.666667     0
C3       C     0            0.0694442    0.666667     0
C4       C     0.03125      0.0277775    0.666667     0
C1       C     0            0.0972225    0            0
C2       C     0.03125      0.138889     0            0
C3       C     0            0.152778     0            0
C4       C     0.03125      0.111111     0            0
C1       C     0            0.0972225    0.333333     0
C2       C     0.03125      0.138889     0.333333     0
C3       C     0            0.152777     0.333333     0
C4       C     0.03125      0.111111     0.333333     0
C1       C     0            0.0972225    0.666667     0
C2       C     0.03125      0.138889     0.666667     0
C3       C     0            0.152778     0.666667     0
C4       C     0.03125      0.111111     0.666667     0
C1       C     0            0.180556     0            0
C2       C     0.03125      0.222222     0            0
C3       C     0            0.236111     0            0
C4       C     0.03125      0.194444     0            0
C1       C     0            0.180556     0.333333     0
C2       C     0.03125      0.222222     0.333333     0
C3       C     0            0.236111     0.333333     0
C4       C     0.03125      0.194444     0.333333     0
C1       C     0            0.180556     0.666667     0
C2       C     0.03125      0.222222     0.666667     0
C3       C     0            0.236111     0.666667     0
C4       C     0.03125      0.194444     0.666667     0
C1       C     0            0.263889     0            0
C2       C     0.03125      0.305556     0            0
C3       C     0            0.319444     0            0
C4       C     0.03125      0.277778     0            0
C1       C     0            0.263889     0.333333     0
C2       C     0.03125      0.305556     0.333333     0
C3       C     0            0.319444     0.333333     0
C4       C     0.03125      0.277778     0.333333     0
C1       C     0            0.263889     0.666667     0
C2       C     0.03125      0.305556     0.666667     0
C3       C     0            0.319444     0.666667     0
C4       C     0.03125      0.277778     0.666667     0
C1       C     0            0.347222     0            0
C2       C     0.03125      0.388889     0            0
C3       C     0            0.402778     0            0
C4       C     0.03125      0.361111     0            0
C1       C     0            0.347222     0.333333     0
C2       C     0.03125      0.388889     0.333333     0
C3       C     0            0.402778     0.333333     0
C4       C     0.03125      0.361111     0.333333     0
C1       C     0            0.347222     0.666667     0
C2       C     0.03125      0.388889     0.666667     0
C3       C     0            0.402778     0.666667     0
C4       C     0.03125      0.361111     0.666667     0
C1       C     0            0.430556     0            0
C2       C     0.03125      0.472223     0            0
C3       C     0            0.486111     0            0
C4       C     0.03125      0.444444     0            0
C1       C     0            0.430556     0.333333     0
C2       C     0.03125      0.472223     0.333333     0
C3       C     0            0.486111     0.333333     0
C4       C     0.03125      0.444444     0.333333     0
C1       C     0            0.430556     0.666667     0
C2       C     0.03125      0.472223     0.666667     0
C3       C     0            0.486111     0.666667     0
C4       C     0.03125      0.444444     0.666667     0
C1       C     0            0.513889     0            0
C2       C     0.03125      0.555556     0            0
C3       C     0            0.569444     0            0
C4       C     0.03125      0.527778     0            0
C1       C     0            0.513889     0.333333     0
C2       C     0.03125      0.555556     0.333333     0
C3       C     0            0.569444     0.333333     0
C4       C     0.03125      0.527778     0.333333     0
C1       C     0            0.513889     0.666667     0
C2       C     0.03125      0.555556     0.666667     0
C3       C     0            0.569444     0.666667     0
C4       C     0.03125      0.527778     0.666667     0
C1       C     0            0.597222     0            0
C2       C     0.03125      0.638889     0            0
C3       C     0            0.652778     0            0
C4       C     0.03125      0.611111     0            0
C1       C     0            0.597222     0.333333     0
C2       C     0.03125      0.638889     0.333333     0
C3       C     0            0.652778     0.333333     0
C4       C     0.03125      0.611111     0.333333     0
C1       C     0            0.597222     0.666667     0
C2       C     0.03125      0.638889     0.666667     0
C3       C     0            0.652778     0.666667     0
C4       C     0.03125      0.611111     0.666667     0
C1       C     0            0.680556     0            0
C2       C     0.03125      0.722222     0            0
C3       C     0            0.736111     0            0
C4       C     0.03125      0.694444     0            0
C1       C     0            0.680556     0.333333     0
C2       C     0.03125      0.722222     0.333333     0
C3       C     0            0.736111     0.333333     0
C4       C     0.03125      0.694444     0.333333     0
C1       C     0            0.680556     0.666667     0
C2       C     0.03125      0.722222     0.666667     0
C3       C     0            0.736111     0.666667     0
C4       C     0.03125      0.694444     0.666667     0
C1       C     0            0.763889     0            0
C2       C     0.03125      0.805556     0            0
C3       C     0            0.819444     0            0
C4       C     0.03125      0.777778     0            0
C1       C     0            0.763889     0.333333     0
C2       C     0.03125      0.805556     0.333333     0
C3       C     0            0.819444     0.333333     0
C4       C     0.03125      0.777778     0.333333     0
C1       C     0            0.763889     0.666667     0
C2       C     0.03125      0.805556     0.666667     0
C3       C     0            0.819444     0.666667     0
C4       C     0.03125      0.777778     0.666667     0
C1       C     0            0.847222     0            0
C2       C     0.03125      0.888889     0            0
C3       C     0            0.902778     0            0
C4       C     0.03125      0.861111     0            0
C1       C     0            0.847222     0.333333     0
C2       C     0.03125      0.888889     0.333333     0
C3       C     0            0.902778     0.333333     0
C4       C     0.03125      0.861111     0.333333     0
C1       C     0            0.847222     0.666667     0
C2       C     0.03125      0.888889     0.666667     0
C3       C     0            0.902778     0.666667     0
C4       C     0.03125      0.861111     0.666667     0
C1       C     0            0.930556     0            0
C2       C     0.03125      0.972222     0            0
C3       C     0            0.986111     0            0
C4       C     0.03125      0.944444     0            0
C1       C     0            0.930556     0.333333     0
C2       C     0.03125      0.972222     0.333333     0
C3       C     0            0.986111     0.333333     0
C4       C     0.03125      0.944444     0.333333     0
C1       C     0            0.930556     0.666667     0
C2       C     0.03125      0.972222     0.666667     0
C3       C     0            0.986111     0.666667     0
C4       C     0.03125      0.944444     0.666667     0
C1       C     0.0625       0.0138892    0            0
C2       C     0.09375      0.0555558    0            0
C3       C     0.0625       0.0694442    0            0
C4       C     0.09375      0.0277775    0            0
C1       C     0.0625       0.0138892    0.333333     0
C2       C     0.09375      0.0555558    0.333333     0
C3       C     0.0625       0.0694442    0.333333     0
C4       C     0.09375      0.0277775    0.333333     0
C1       C     0.0625       0.0138892    0.666667     0
C2       C     0.09375      0.0555558    0.666667     0
C3       C     0.0625       0.0694442    0.666667     0
C4       C     0.09375      0.0277775    0.666667     0
C1       C     0.0625       0.0972225    0            0
C2       C     0.09375      0.138889     0            0
C3       C     0.0625       0.152778     0            0
C4       C     0.09375      0.111111     0            0
C1       C     0.0625       0.0972225    0.333333     0
C2       C     0.09375      0.138889     0.333333     0
C3       C     0.0625       0.152777     0.333333     0
C4       C     0.09375      0.111111     0.333333     0
C1       C     0.0625       0.0972225    0.666667     0
C2       C     0.09375      0.138889     0.666667     0
C3       C     0.0625       0.152778     0.666667     0
C4       C     0.09375      0.111111     0.666667     0
C1       C     0.0625       0.180556     0            0
C2       C     0.09375      0.222222     0            0
C3       C     0.0625       0.236111     0            0
C4       C     0.09375      0.194444     0            0
C1       C     0.0625       0.180556     0.333333     0
C2       C     0.09375      0.222222     0.333333     0
C3       C     0.0625       0.236111     0.333333     0
C4       C     0.09375      0.194444     0.333333     0
C1       C     0.0625       0.180556     0.666667     0
C2       C     0.09375      0.222222     0.666667     0
C3       C     0.0625       0.236111     0.666667     0
C4       C     0.09375      0.194444     0.666667     0
C1       C     0.0625       0.263889     0            0
C2       C     0.09375      0.305556     0            0
C3       C     0.0625       0.319444     0            0
C4       C     0.09375      0.277778     0            0
C1       C     0.0625       0.263889     0.333333     0
C2       C     0.09375      0.305556     0.333333     0
C3       C     0.0625       0.319444     0.333333     0
C4       C     0.09375      0.277778     0.333333     0
C1       C     0.0625       0.263889     0.666667     0
C2       C     0.09375      0.305556     0.666667     0
C3       C     0.0625       0.319444     0.666667     0
C4       C     0.09375      0.277778     0.666667     0
C1       C     0.0625       0.347222     0            0
C2       C     0.09375      0.388889     0            0
C3       C     0.0625       0.402778     0            0
C4       C     0.09375      0.361111     0            0
C1       C     0.0625       0.347222     0.333333     0
C2       C     0.09375      0.388889     0.333333     0
C3       C     0.0625       0.402778     0.333333     0
C4       C     0.09375      0.361111     0.333333     0
C1       C     0.0625       0.347222     0.666667     0
C2       C     0.09375      0.388889     0.666667     0
C3       C     0.0625       0.402778     0.666667     0
C4       C     0.09375      0.361111     0.666667     0
C1       C     0.0625       0.430556     0            0
C2       C     0.09375      0.472223     0            0
C3       C     0.0625       0.486111     0            0
C4       C     0.09375      0.444444     0            0
C1       C     0.0625       0.430556     0.333333     0
C2       C     0.09375      0.472223     0.333333     0
C3       C     0.0625       0.486111     0.333333     0
C4       C     0.09375      0.444444     0.333333     0
C1       C     0.0625       0.430556     0.666667     0
C2       C     0.09375      0.472223     0.666667     0
C3       C     0.0625       0.486111     0.666667     0
C4       C     0.09375      0.444444     0.666667     0
C1       C     0.0625       0.513889     0            0
C2       C     0.09375      0.555556     0            0
C3       C     0.0625       0.569444     0            0
C4       C     0.09375      0.527778     0            0
C1       C     0.0625       0.513889     0.333333     0
C2       C     0.09375      0.555556     0.333333     0
C3       C     0.0625       0.569444     0.333333     0
C4       C     0.09375      0.527778     0.333333     0
C1       C     0.0625       0.513889     0.666667     0
C2       C     0.09375      0.555556     0.666667     0
C3       C     0.0625       0.569444     0.666667     0
C4       C     0.09375      0.527778     0.666667     0
C1       C     0.0625       0.597222     0            0
C2       C     0.09375      0.638889     0            0
C3       C     0.0625       0.652778     0            0
C4       C     0.09375      0.611111     0            0
C1       C     0.0625       0.597222     0.333333     0
C2       C     0.09375      0.638889     0.333333     0
C3       C     0.0625       0.652778     0.333333     0
C4       C     0.09375      0.611111     0.333333     0
C1       C     0.0625       0.597222     0.666667     0
C2       C     0.09375      0.638889     0.666667     0
C3       C     0.0625       0.652778     0.666667     0
C4       C     0.09375      0.611111     0.666667     0
C1       C     0.0625       0.680556     0            0
C2       C     0.09375      0.722222     0            0
C3       C     0.0625       0.736111     0            0
C4       C     0.09375      0.694444     0            0
C1       C     0.0625       0.680556     0.333333     0
C2       C     0.09375      0.722222     0.333333     0
C3       C     0.0625       0.736111     0.333333     0
C4       C     0.09375      0.694444     0.333333     0
C1       C     0.0625       0.680556     0.666667     0
C2       C     0.09375      0.722222     0.666667     0
C3       C     0.0625       0.736111     0.666667     0
C4       C     0.09375      0.694444     0.666667     0
C1       C     0.0625       0.763889     0            0
C2       C     0.09375      0.805556     0            0
C3       C     0.0625       0.819444     0            0
C4       C     0.09375      0.777778     0            0
C1       C     0.0625       0.763889     0.333333     0
C2       C     0.09375      0.805556     0.333333     0
C3       C     0.0625       0.819444     0.333333     0
C4       C     0.09375      0.777778     0.333333     0
C1       C     0.0625       0.763889     0.666667     0
C2       C     0.09375      0.805556     0.666667     0
C3       C     0.0625       0.819444     0.666667     0
C4       C     0.09375      0.777778     0.666667     0
C1       C     0.0625       0.847222     0            0
C2       C     0.09375      0.888889     0            0
C3       C     0.0625       0.902778     0            0
C4       C     0.09375      0.861111     0            0
C1       C     0.0625       0.847222     0.333333     0
C2       C     0.09375      0.888889     0.333333     0
C3       C     0.0625       0.902778     0.333333     0
C4       C     0.09375      0.861111     0.333333     0
C1       C     0.0625       0.847222     0.666667     0
C2       C     0.09375      0.888889     0.666667     0
C3       C     0.0625       0.902778     0.666667     0
C4       C     0.09375      0.861111     0.666667     0
C1       C     0.0625       0.930556     0            0
C2       C     0.09375      0.972222     0            0
C3       C     0.0625       0.986111     0            0
C4       C     0.09375      0.944444     0            0
C1       C     0.0625       0.930556     0.333333     0
C2       C     0.09375      0.972222     0.333333     0
C3       C     0.0625       0.986111     0.333333     0
C4       C     0.09375      0.944444     0.333333     0
C1       C     0.0625       0.930556     0.666667     0
C2       C     0.09375      0.972222     0.666667     0
C3       C     0.0625       0.986111     0.666667     0
C4       C     0.09375      0.944444     0.666667     0
C1       C     0.125        0.0138892    0            0
C2       C     0.15625      0.0555558    0            0
C3       C     0.125        0.0694442    0            0
C4       C     0.15625      0.0277775    0            0
C1       C     0.125        0.0138892    0.333333     0
C2       C     0.15625      0.0555558    0.333333     0
C3       C     0.125        0.0694442    0.333333     0
C4       C     0.15625      0.0277775    0.333333     0
C1       C     0.125        0.0138892    0.666667     0
C2       C     0.15625      0.0555558    0.666667     0
C3       C     0.125        0.0694442    0.666667     0
C4       C     0.15625      0.0277775    0.666667     0
C1       C     0.125        0.0972225    0            0
C2       C     0.15625      0.138889     0            0
C3       C     0.125        0.152778     0            0
C4       C     0.15625      0.111111     0            0
C1       C     0.125        0.0972225    0.333333     0
C2       C     0.15625      0.138889     0.333333     0
C3       C     0.125        0.152777     0.333333     0
C4       C     0.15625      0.111111     0.333333     0
C1       C     0.125        0.0972225    0.666667     0
C2       C     0.15625      0.138889     0.666667     0
C3       C     0.125        0.152778     0.666667     0
C4       C     0.15625      0.111111     0.666667     0
C1       C     0.125        0.180556     0            0
C2       C     0.15625      0.222222     0            0
C3       C     0.125        0.236111     0            0
C4       C     0.15625      0.194444     0            0
C1       C     0.125        0.180556     0.333333     0
C2       C     0.15625      0.222222     0.333333     0
C3       C     0.125        0.236111     0.333333     0
C4       C     0.15625      0.194444     0.333333     0
C1       C     0.125        0.180556     0.666667     0
C2       C     0.15625      0.222222     0.666667     0
C3       C     0.125        0.236111     0.666667     0
C4       C     0.15625      0.194444     0.666667     0
C1       C     0.125        0.263889     0            0
C2       C     0.15625      0.305556     0            0
C3       C     0.125        0.319444     0            0
C4       C     0.15625      0.277778     0            0
C1       C     0.125        0.263889     0.333333     0
C2       C     0.15625      0.305556     0.333333     0
C3       C     0.125        0.319444     0.333333     0
C4       C     0.15625      0.277778     0.333333     0
C1       C     0.125        0.263889     0.666667     0
C2       C     0.15625      0.305556     0.666667     0
C3       C     0.125        0.319444     0.666667     0
C4       C     0.15625      0.277778     0.666667     0
C1       C     0.125        0.347222     0            0
C2       C     0.15625      0.388889     0            0
C3       C     0.125        0.402778     0            0
C4       C     0.15625      0.361111     0            0
C1       C     0.125        0.347222     0.333333     0
C2       C     0.15625      0.388889     0.333333     0
C3       C     0.125        0.402778     0.333333     0
C4       C     0.15625      0.361111     0.333333     0
C1       C     0.125        0.347222     0.666667     0
C2       C     0.15625      0.388889     0.666667     0
C3       C     0.125        0.402778     0.666667     0
C4       C     0.15625      0.361111     0.666667     0
C1       C     0.125        0.430556     0            0
C2       C     0.15625      0.472223     0            0
C3       C     0.125        0.486111     0            0
C4       C     0.15625      0.444444     0            0
C1       C     0.125        0.430556     0.333333     0
C2       C     0.15625      0.472223     0.333333     0
C3       C     0.125        0.486111     0.333333     0
C4       C     0.15625      0.444444     0.333333     0
C1       C     0.125        0.430556     0.666667     0
C2       C     0.15625      0.472223     0.666667     0
C3       C     0.125        0.486111     0.666667     0
C4       C     0.15625      0.444444     0.666667     0
C1       C     0.125        0.513889     0            0
C2       C     0.15625      0.555556     0            0
C3       C     0.125        0.569444     0            0
C4       C     0.15625      0.527778     0            0
C1       C     0.125        0.513889     0.333333     0
C2       C     0.15625      0.555556     0.333333     0
C3       C     0.125        0.569444     0.333333     0
C4       C     0.15625      0.527778     0.333333     0
C1       C     0.125        0.513889     0.666667     0
C2       C     0.15625      0.555556     0.666667     0
C3       C     0.125        0.569444     0.666667     0
C4       C     0.15625      0.527778     0.666667     0
C1       C     0.125        0.597222     0            0
C2       C     0.15625      0.638889     0            0
C3       C     0.125        0.652778     0            0
C4       C     0.15625      0.611111     0            0
C1       C     0.125        0.597222     0.333333     0
C2       C     0.15625      0.638889     0.333333     0
C3       C     0.125        0.652778     0.333333     0
C4       C     0.15625      0.611111     0.333333     0
C1       C     0.125        0.597222     0.666667     0
C2       C     0.15625      0.638889     0.666667     0
C3       C     0.125        0.652778     0.666667     0
C4       C     0.15625      0.611111     0.666667     0
C1       C     0.125        0.680556     0            0
C2       C     0.15625      0.722222     0            0
C3       C     0.125        0.736111     0            0
C4       C     0.15625      0.694444     0            0
C1       C     0.125        0.680556     0.333333     0
C2       C     0.15625      0.722222     0.333333     0
C3       C     0.125        0.736111     0.333333     0
C4       C     0.15625      0.694444     0.333333     0
C1       C     0.125        0.680556     0.666667     0
C2       C     0.15625      0.722222     0.666667     0
C3       C     0.125        0.736111     0.666667     0
C4       C     0.15625      0.694444     0.666667     0
C1       C     0.125        0.763889     0            0
C2       C     0.15625      0.805556     0            0
C3       C     0.125        0.819444     0            0
C4       C     0.15625      0.777778     0            0
C1       C     0.125        0.763889     0.333333     0
C2       C     0.15625      0.805556     0.333333     0
C3       C     0.125        0.819444     0.333333     0
C4       C     0.15625      0.777778     0.333333     0
C1       C     0.125        0.763889     0.666667     0
C2       C     0.15625      0.805556     0.666667     0
C3       C     0.125        0.819444     0.666667     0
C4       C     0.15625      0.777778     0.666667     0
C1       C     0.125        0.847222     0            0
C2       C     0.15625      0.888889     0            0
C3       C     0.125        0.902778     0            0
C4       C     0.15625      0.861111     0            0
C1       C     0.125        0.847222     0.333333     0
C2       C     0.15625      0.888889     0.333333     0
C3       C     0.125        0.902778     0.333333     0
C4       C     0.15625      0.861111     0.333333     0
C1       C     0.125        0.847222     0.666667     0
C2       C     0.15625      0.888889     0.666667     0
C3       C     0.125        0.902778     0.666667     0
C4       C     0.15625      0.861111     0.666667     0
C1       C     0.125        0.930556     0            0
C2       C     0.15625      0.972222     0            0
C3       C     0.125        0.986111     0            0
C4       C     0.15625      0.944444     0            0
C1       C     0.125        0.930556     0.333333     0
C2       C     0.15625      0.972222     0.333333     0
C3       C     0.125        0.986111     0.333333     0
C4       C     0.15625      0.944444     0.333333     0
C1       C     0.125        0.930556     0.666667     0
C2       C     0.15625      0.972222     0.666667     0
C3       C     0.125        0.986111     0.666667     0
C4       C     0.15625      0.944444     0.666667     0
C1       C     0.1875       0.0138892    0            0
C2       C     0.21875      0.0555558    0            0
C3       C     0.1875       0.0694442    0            0
C4       C     0.21875      0.0277775    0            0
C1       C     0.1875       0.0138892    0.333333     0
C2       C     0.21875      0.0555558    0.333333     0
C3       C     0.1875       0.0694442    0.333333     0
C4       C     0.21875      0.0277775    0.333333     0
C1       C     0.1875       0.0138892    0.666667     0
C2       C     0.21875      0.0555558    0.666667     0
C3       C     0.1875       0.0694442    0.666667     0
C4       C     0.21875      0.0277775    0.666667     0
C1       C     0.1875       0.0972225    0            0
C2       C     0.21875      0.138889     0            0
C3       C     0.1875       0.152778     0            0
C4       C     0.21875      0.111111     0            0
C1       C     0.1875       0.0972225    0.333333     0
C2       C     0.21875      0.138889     0.333333     0
C3       C     0.1875       0.152777     0.333333     0
C4       C     0.21875      0.111111     0.333333     0
C1       C     0.1875       0.0972225    0.666667     0
C2       C     0.21875      0.138889     0.666667     0
C3       C     0.1875       0.152778     0.666667     0
C4       C     0.21875      0.111111     0.666667     0
C1       C     0.1875       0.180556     0            0
C2       C     0.21875      0.222222     0            0
C3       C     0.1875       0.236111     0            0
C4       C     0.21875      0.194444     0            0
C1       C     0.1875       0.180556     0.333333     0
C2       C     0.21875      0.222222     0.333333     0
C3       C     0.1875       0.236111     0.333333     0
C4       C     0.21875      0.194444     0.333333     0
C1       C     0.1875       0.180556     0.666667     0
C2       C     0.21875      0.222222     0.666667     0
C3       C     0.1875       0.236111     0.666667     0
C4       C     0.21875      0.194444     0.666667     0
C1       C     0.1875       0.263889     0            0
C2       C     0.21875      0.305556     0            0
C3       C     0.1875       0.319444     0            0
C4       C     0.21875      0.277778     0            0
C1       C     0.1875       0.263889     0.333333     0
C2       C     0.21875      0.305556     0.333333     0
C3       C     0.1875       0.319444     0.333333     0
C4       C     0.21875      0.277778     0.333333     0
C1       C     0.1875       0.263889     0.666667     0
C2       C     0.21875      0.305556     0.666667     0
C3       C     0.1875       0.319444     0.666667     0
C4       C     0.21875      0.277778     0.666667     0
C1       C     0.1875       0.347222     0            0
C2       C     0.21875      0.388889     0            0
C3       C     0.1875       0.402778     0            0
C4       C     0.21875      0.361111     0            0
C1       C     0.1875       0.347222     0.333333     0
C2       C     0.21875      0.388889     0.333333     0
C3       C     0.1875       0.402778     0.333333     0
C4       C     0.21875      0.361111     0.333333     0
C1       C     0.1875       0.347222     0.666667     0
C2       C     0.21875      0.388889     0.666667     0
C3       C     0.1875       0.402778     0.666667     0
C4       C     0.21875      0.361111     0.666667     0
C1       C     0.1875       0.430556     0            0
C2       C     0.21875      0.472223     0            0
C3       C     0.1875       0.486111     0            0
C4       C     0.21875      0.444444     0            0
C1       C     0.1875       0.430556     0.333333     0
C2       C     0.21875      0.472223     0.333333     0
C3       C     0.1875       0.486111     0.333333     0
C4       C     0.21875      0.444444     0.333333     0
C1       C     0.1875       0.430556     0.666667     0
C2       C     0.21875      0.472223     0.666667     0
C3       C     0.1875       0.486111     0.666667     0
C4       C     0.21875      0.444444     0.666667     0
C1       C     0.1875       0.513889     0            0
C2       C     0.21875      0.555556     0            0
C3       C     0.1875       0.569444     0            0
C4       C     0.21875      0.527778     0            0
C1       C     0.1875       0.513889     0.333333     0
C2       C     0.21875      0.555556     0.333333     0
C3       C     0.1875       0.569444     0.333333     0
C4       C     0.21875      0.527778     0.333333     0
C1       C     0.1875       0.513889     0.666667     0
C2       C     0.21875      0.555556     0.666667     0
C3       C     0.1875       0.569444     0.666667     0
C4       C     0.21875      0.527778     0.666667     0
C1       C     0.1875       0.597222     0            0
C2       C     0.21875      0.638889     0            0
C3       C     0.1875       0.652778     0            0
C4       C     0.21875      0.611111     0            0
C1       C     0.1875       0.597222     0.333333     0
C2       C     0.21875      0.638889     0.333333     0
C3       C     0.1875       0.652778     0.333333     0
C4       C     0.21875      0.611111     0.333333     0
C1       C     0.1875       0.597222     0.666667     0
C2       C     0.21875      0.638889     0.666667     0
C3       C     0.1875       0.652778     0.666667     0
C4       C     0.21875      0.611111     0.666667     0
C1       C     0.1875       0.680556     0            0
C2       C     0.21875      0.722222     0            0
C3       C     0.1875       0.736111     0            0
C4       C     0.21875      0.694444     0            0
C1       C     0.1875       0.680556     0.333333     0
C2       C     0.21875      0.722222     0.333333     0
C3       C     0.1875       0.736111     0.333333     0
C4       C     0.21875      0.694444     0.333333     0
C1       C     0.1875       0.680556     0.666667     0
C2       C     0.21875      0.722222     0.666667     0
C3       C     0.1875       0.736111     0.666667     0
C4       C     0.21875      0.694444     0.666667     0
C1       C     0.1875       0.763889     0            0
C2       C     0.21875      0.805556     0            0
C3       C     0.1875       0.819444     0            0
C4       C     0.21875      0.777778     0            0
C1       C     0.1875       0.763889     0.333333     0
C2       C     0.21875      0.805556     0.333333     0
C3       C     0.1875       0.819444     0.333333     0
C4       C     0.21875      0.777778     0.333333     0
C1       C     0.1875       0.763889     0.666667     0
C2       C     0.21875      0.805556     0.666667     0
C3       C     0.1875       0.819444     0.666667     0
C4       C     0.21875      0.777778     0.666667     0
C1       C     0.1875       0.847222     0            0
C2       C     0.21875      0.888889     0            0
C3       C     0.1875       0.902778     0            0
C4       C     0.21875      0.861111     0            0
C1       C     0.1875       0.847222     0.333333     0
C2       C     0.21875      0.888889     0.333333     0
C3       C     0.1875       0.902778     0.333333     0
C4       C     0.21875      0.861111     0.333333     0
C1       C     0.1875       0.847222     0.666667     0
C2       C     0.21875      0.888889     0.666667     0
C3       C     0.1875       0.902778     0.666667     0
C4       C     0.21875      0.861111     0.666667     0
C1       C     0.1875       0.930556     0            0
C2       C     0.21875      0.972222     0            0
C3       C     0.1875       0.986111     0            0
C4       C     0.21875      0.944444     0            0
C1       C     0.1875       0.930556     0.333333     0
C2       C     0.21875      0.972222     0.333333     0
C3       C     0.1875       0.986111     0.333333     0
C4       C     0.21875      0.944444     0.333333     0
C1       C     0.1875       0.930556     0.666667     0
C2       C     0.21875      0.972222     0.666667     0
C3       C     0.1875       0.986111     0.666667     0
C4       C     0.21875      0.944444     0.666667     0
C1       C     0.25         0.0138892    0            0
C2       C     0.28125      0.0555558    0            0
C3       C     0.25         0.0694442    0            0
C4       C     0.28125      0.0277775    0            0
C1       C     0.25         0.0138892    0.333333     0
C2       C     0.28125      0.0555558    0.333333     0
C3       C     0.25         0.0694442    0.333333     0
C4       C     0.28125      0.0277775    0.333333     0
C1       C     0.25         0.0138892    0.666667     0
C2       C     0.28125      0.0555558    0.666667     0
C3       C     0.25         0.0694442    0.666667     0
C4       C     0.28125      0.0277775    0.666667     0
C1       C     0.25         0.0972225    0            0
C2       C     0.28125      0.138889     0            0
C3       C     0.25         0.152778     0            0
C4       C     0.28125      0.111111     0            0
C1       C     0.25         0.0972225    0.333333     0
C2       C     0.28125      0.138889     0.333333     0
C3       C     0.25         0.152777     0.333333     0
C4       C     0.28125      0.111111     0.333333     0
C1       C     0.25         0.0972225    0.666667     0
C2       C     0.28125      0.138889     0.666667     0
C3       C     0.25         0.152778     0.666667     0
C4       C     0.28125      0.111111     0.666667     0
C1       C     0.25         0.180556     0            0
C2       C     0.28125      0.222222     0            0
C3       C     0.25         0.236111     0            0
C4       C     0.28125      0.194444     0            0
C1       C     0.25         0.180556     0.333333     0
C2       C     0.28125      0.222222     0.333333     0
C3       C     0.25         0.236111     0.333333     0
C4       C     0.28125      0.194444     0.333333     0
C1       C     0.25         0.180556     0.666667     0
C2       C     0.28125      0.222222     0.666667     0
C3       C     0.25         0.236111     0.666667     0
C4       C     0.28125      0.194444     0.666667     0
C1       C     0.25         0.263889     0            0
C2       C     0.28125      0.305556     0            0
C3       C     0.25         0.319444     0            0
C4       C     0.28125      0.277778     0            0
C1       C     0.25         0.263889     0.333333     0
C2       C     0.28125      0.305556     0.333333     0
C3       C     0.25         0.319444     0.333333     0
C4       C     0.28125      0.277778     0.333333     0
C1       C     0.25         0.263889     0.666667     0
C2       C     0.28125      0.305556     0.666667     0
C3       C     0.25         0.319444     0.666667     0
C4       C     0.28125      0.277778     0.666667     0
C1       C     0.25         0.347222     0            0
C2       C     0.28125      0.388889     0            0
C3       C     0.25         0.402778     0            0
C4       C     0.28125      0.361111     0            0
C1       C     0.25         0.347222     0.333333     0
C2       C     0.28125      0.388889     0.333333     0
C3       C     0.25         0.402778     0.333333     0
C4       C     0.28125      0.361111     0.333333     0
C1       C     0.25         0.347222     0.666667     0
C2       C     0.28125      0.388889     0.666667     0
C3       C     0.25         0.402778     0.666667     0
C4       C     0.28125      0.361111     0.666667     0
C1       C     0.25         0.430556     0            0
C2       C     0.28125      0.472223     0            0
C3       C     0.25         0.486111     0            0
C4       C     0.28125      0.444444     0            0
C1       C     0.25         0.430556     0.333333     0
C2       C     0.28125      0.472223     0.333333     0
C3       C     0.25         0.486111     0.333333     0
C4       C     0.28125      0.444444     0.333333     0
C1       C     0.25         0.430556     0.666667     0
C2       C     0.28125      0.472223     0.666667     0
C3       C     0.25         0.486111     0.666667     0
C4       C     0.28125      0.444444     0.666667     0
C1       C     0.25         0.513889     0            0
C2       C     0.28125      0.555556     0            0
C3       C     0.25         0.569444     0            0
C4       C     0.28125      0.527778     0            0
C1       C     0.25         0.513889     0.333333     0
C2       C     0.28125      0.555556     0.333333     0
C3       C     0.25         0.569444     0.333333     0
C4       C     0.28125      0.527778     0.333333     0
C1       C     0.25         0.513889     0.666667     0
C2       C     0.28125      0.555556     0.666667     0
C3       C     0.25         0.569444     0.666667     0
C4       C     0.28125      0.527778     0.666667     0
C1       C     0.25         0.597222     0            0
C2       C     0.28125      0.638889     0            0
C3       C     0.25         0.652778     0            0
C4       C     0.28125      0.611111     0            0
C1       C     0.25         0.597222     0.333333     0
C2       C     0.28125      0.638889     0.333333     0
C3       C     0.25         0.652778     0.333333     0
C4       C     0.28125      0.611111     0.333333     0
C1       C     0.25         0.597222     0.666667     0
C2       C     0.28125      0.638889     0.666667     0
C3       C     0.25         0.652778     0.666667     0
C4       C     0.28125      0.611111     0.666667     0
C1       C     0.25         0.680556     0            0
C2       C     0.28125      0.722222     0            0
C3       C     0.25         0.736111     0            0
C4       C     0.28125      0.694444     0            0
C1       C     0.25         0.680556     0.333333     0
C2       C     0.28125      0.722222     0.333333     0
C3       C     0.25         0.736111     0.333333     0
C4       C     0.28125      0.694444     0.333333     0
C1       C     0.25         0.680556     0.666667     0
C2       C     0.28125      0.722222     0.666667     0
C3       C     0.25         0.736111     0.666667     0
C4       C     0.28125      0.694444     0.666667     0
C1       C     0.25         0.763889     0            0
C2       C     0.28125      0.805556     0            0
C3       C     0.25         0.819444     0            0
C4       C     0.28125      0.777778     0            0
C1       C     0.25         0.763889     0.333333     0
C2       C     0.28125      0.805556     0.333333     0
C3       C     0.25         0.819444     0.333333     0
C4       C     0.28125      0.777778     0.333333     0
C1       C     0.25         0.763889     0.666667     0
C2       C     0.28125      0.805556     0.666667     0
C3       C     0.25         0.819444     0.666667     0
C4       C     0.28125      0.777778     0.666667     0
C1       C     0.25         0.847222     0            0
C2       C     0.28125      0.888889     0            0
C3       C     0.25         0.902778     0            0
C4       C     0.28125      0.861111     0            0
C1       C     0.25         0.847222     0.333333     0
C2       C     0.28125      0.888889     0.333333     0
C3       C     0.25         0.902778     0.333333     0
C4       C     0.28125      0.861111     0.333333     0
C1       C     0.25         0.847222     0.666667     0
C2       C     0.28125      0.888889     0.666667     0
C3       C     0.25         0.902778     0.666667     0
C4       C     0.28125      0.861111     0.666667     0
C1       C     0.25         0.930556     0            0
C2       C     0.28125      0.972222     0            0
C3       C     0.25         0.986111     0            0
C4       C     0.28125      0.944444     0            0
C1       C     0.25         0.930556     0.333333     0
C2       C     0.28125      0.972222     0.333333     0
C3       C     0.25         0.986111     0.333333     0
C4       C     0.28125      0.944444     0.333333     0
C1       C     0.25         0.930556     0.666667     0
C2       C     0.28125      0.972222     0.666667     0
C3       C     0.25         0.986111     0.666667     0
C4       C     0.28125      0.944444     0.666667     0
C1       C     0.3125       0.0138892    0            0
C2       C     0.34375      0.0555558    0            0
C3       C     0.3125       0.0694442    0            0
C4       C     0.34375      0.0277775    0            0
C1       C     0.3125       0.0138892    0.333333     0
C2       C     0.34375      0.0555558    0.333333     0
C3       C     0.3125       0.0694442    0.333333     0
C4       C     0.34375      0.0277775    0.333333     0
C1       C     0.3125       0.0138892    0.666667     0
C2       C     0.34375      0.0555558    0.666667     0
C3       C     0.3125       0.0694442    0.666667     0
C4       C     0.34375      0.0277775    0.666667     0
C1       C     0.3125       0.0972225    0            0
C2       C     0.34375      0.138889     0            0
C3       C     0.3125       0.152778     0            0
C4       C     0.34375      0.111111     0            0
C1       C     0.3125       0.0972225    0.333333     0
C2       C     0.34375      0.138889     0.333333     0
C3       C     0.3125       0.152777     0.333333     0
C4       C     0.34375      0.111111     0.333333     0
C1       C     0.3125       0.0972225    0.666667     0
C2       C     0.34375      0.138889     0.666667     0
C3       C     0.3125       0.152778     0.666667     0
C4       C     0.34375      0.111111     0.666667     0
C1       C     0.3125       0.180556     0            0
C2       C     0.34375      0.222222     0            0
C3       C     0.3125       0.236111     0            0
C4       C     0.34375      0.194444     0            0
C1       C     0.3125       0.180556     0.333333     0
C2       C     0.34375      0.222222     0.333333     0
C3       C     0.3125       0.236111     0.333333     0
C4       C     0.34375      0.194444     0.333333     0
C1       C     0.3125       0.180556     0.666667     0
C2       C     0.34375      0.222222     0.666667     0
C3       C     0.3125       0.236111     0.666667     0
C4       C     0.34375      0.194444     0.666667     0
C1       C     0.3125       0.263889     0            0
C2       C     0.34375      0.305556     0            0
C3       C     0.3125       0.319444     0            0
C4       C     0.34375      0.277778     0            0
C1       C     0.3125       0.263889     0.333333     0
C2       C     0.34375      0.305556     0.333333     0
C3       C     0.3125       0.319444     0.333333     0
C4       C     0.34375      0.277778     0.333333     0
C1       C     0.3125       0.263889     0.666667     0
C2       C     0.34375      0.305556     0.666667     0
C3       C     0.3125       0.319444     0.666667     0
C4       C     0.34375      0.277778     0.666667     0
C1       C     0.3125       0.347222     0            0
C2       C     0.34375      0.388889     0            0
C3       C     0.3125       0.402778     0            0
C4       C     0.34375      0.361111     0            0
C1       C     0.3125       0.347222     0.333333     0
C2       C     0.34375      0.388889     0.333333     0
C3       C     0.3125       0.402778     0.333333     0
C4       C     0.34375      0.361111     0.333333     0
C1       C     0.3125       0.347222     0.666667     0
C2       C     0.34375      0.388889     0.666667     0
C3       C     0.3125       0.402778     0.666667     0
C4       C     0.34375      0.361111     0.666667     0
C1       C     0.3125       0.430556     0            0
C2       C     0.34375      0.472223     0            0
C3       C     0.3125       0.486111     0            0
C4       C     0.34375      0.444444     0            0
C1       C     0.3125       0.430556     0.333333     0
C2       C     0.34375      0.472223     0.333333     0
C3       C     0.3125       0.486111     0.333333     0
C4       C     0.34375      0.444444     0.333333     0
C1       C     0.3125       0.430556     0.666667     0
C2       C     0.34375      0.472223     0.666667     0
C3       C     0.3125       0.486111     0.666667     0
C4       C     0.34375      0.444444     0.666667     0
C1       C     0.3125       0.513889     0            0
C2       C     0.34375      0.555556     0            0
C3       C     0.3125       0.569444     0            0
C4       C     0.34375      0.527778     0            0
C1       C     0.3125       0.513889     0.333333     0
C2       C     0.34375      0.555556     0.333333     0
C3       C     0.3125       0.569444     0.333333     0
C4       C     0.34375      0.527778     0.333333     0
C1       C     0.3125       0.513889     0.666667     0
C2       C     0.34375      0.555556     0.666667     0
C3       C     0.3125       0.569444     0.666667     0
C4       C     0.34375      0.527778     0.666667     0
C1       C     0.3125       0.597222     0            0
C2       C     0.34375      0.638889     0            0
C3       C     0.3125       0.652778     0            0
C4       C     0.34375      0.611111     0            0
C1       C     0.3125       0.597222     0.333333     0
C2       C     0.34375      0.638889     0.333333     0
C3       C     0.3125       0.652778     0.333333     0
C4       C     0.34375      0.611111     0.333333     0
C1       C     0.3125       0.597222     0.666667     0
C2       C     0.34375      0.638889     0.666667     0
C3       C     0.3125       0.652778     0.666667     0
C4       C     0.34375      0.611111     0.666667     0
C1       C     0.3125       0.680556     0            0
C2       C     0.34375      0.722222     0            0
C3       C     0.3125       0.736111     0            0
C4       C     0.34375      0.694444     0            0
C1       C     0.3125       0.680556     0.333333     0
C2       C     0.34375      0.722222     0.333333     0
C3       C     0.3125       0.736111     0.333333     0
C4       C     0.34375      0.694444     0.333333     0
C1       C     0.3125       0.680556     0.666667     0
C2       C     0.34375      0.722222     0.666667     0
C3       C     0.3125       0.736111     0.666667     0
C4       C     0.34375      0.694444     0.666667     0
C1       C     0.3125       0.763889     0            0
C2       C     0.34375      0.805556     0            0
C3       C     0.3125       0.819444     0            0
C4       C     0.34375      0.777778     0            0
C1       C     0.3125       0.763889     0.333333     0
C2       C     0.34375      0.805556     0.333333     0
C3       C     0.3125       0.819444     0.333333     0
C4       C     0.34375      0.777778     0.333333     0
C1       C     0.3125       0.763889     0.666667     0
C2       C     0.34375      0.805556     0.666667     0
C3       C     0.3125       0.819444     0.666667     0
C4       C     0.34375      0.777778     0.666667     0
C1       C     0.3125       0.847222     0            0
C2       C     0.34375      0.888889     0            0
C3       C     0.3125       0.902778     0            0
C4       C     0.34375      0.861111     0            0
C1       C     0.3125       0.847222     0.333333     0
C2       C     0.34375      0.888889     0.333333     0
C3       C     0.3125       0.902778     0.333333     0
C4       C     0.34375      0.861111     0.333333     0
C1       C     0.3125       0.847222     0.666667     0
C2       C     0.34375      0.888889     0.666667     0
C3       C     0.3125       0.902778     0.666667     0
C4       C     0.34375      0.861111     0.666667     0
C1       C     0.3125       0.930556     0            0
C2       C     0.34375      0.972222     0            0
C3       C     0.3125       0.986111     0            0
C4       C     0.34375      0.944444     0            0
C1       C     0.3125       0.930556     0.333333     0
C2       C     0.34375      0.972222     0.333333     0
C3       C     0.3125       0.986111     0.333333     0
C4       C     0.34375      0.944444     0.333333     0
C1       C     0.3125       0.930556     0.666667     0
C2       C     0.34375      0.972222     0.666667     0
C3       C     0.3125       0.986111     0.666667     0
C4       C     0.34375      0.944444     0.666667     0
C1       C     0.375        0.0138892    0            0
C2       C     0.40625      0.0555558    0            0
C3       C     0.375        0.0694442    0            0
C4       C     0.40625      0.0277775    0            0
C1       C     0.375        0.0138892    0.333333     0
C2       C     0.40625      0.0555558    0.333333     0
C3       C     0.375        0.0694442    0.333333     0
C4       C     0.40625      0.0277775    0.333333     0
C1       C     0.375        0.0138892    0.666667     0
C2       C     0.40625      0.0555558    0.666667     0
C3       C     0.375        0.0694442    0.666667     0
C4       C     0.40625      0.0277775    0.666667     0
C1       C     0.375        0.0972225    0            0
C2       C     0.40625      0.138889     0            0
C3       C     0.375        0.152778     0            0
C4       C     0.40625      0.111111     0            0
C1       C     0.375        0.0972225    0.333333     0
C2       C     0.40625      0.138889     0.333333     0
C3       C     0.375        0.152777     0.333333     0
C4       C     0.40625      0.111111     0.333333     0
C1       C     0.375        0.0972225    0.666667     0
C2       C     0.40625      0.138889     0.666667     0
C3       C     0.375        0.152778     0.666667     0
C4       C     0.40625      0.111111     0.666667     0
C1       C     0.375        0.180556     0            0
C2       C     0.40625      0.222222     0            0
C3       C     0.375        0.236111     0            0
C4       C     0.40625      0.194444     0            0
C1       C     0.375        0.180556     0.333333     0
C2       C     0.40625      0.222222     0.333333     0
C3       C     0.375        0.236111     0.333333     0
C4       C     0.40625      0.194444     0.333333     0
C1       C     0.375        0.180556     0.666667     0
C2       C     0.40625      0.222222     0.666667     0
C3       C     0.375        0.236111     0.666667     0
C4       C     0.40625      0.194444     0.666667     0
C1       C     0.375        0.263889     0            0
C2       C     0.40625      0.305556     0            0
C3       C     0.375        0.319444     0            0
C4       C     0.40625      0.277778     0            0
C1       C     0.375        0.263889     0.333333     0
C2       C     0.40625      0.305556     0.333333     0
C3       C     0.375        0.319444     0.333333     0
C4       C     0.40625      0.277778     0.333333     0
C1       C     0.375        0.263889     0.666667     0
C2       C     0.40625      0.305556     0.666667     0
C3       C     0.375        0.319444     0.666667     0
C4       C     0.40625      0.277778     0.666667     0
C1       C     0.375        0.347222     0            0
C2       C     0.40625      0.388889     0            0
C3       C     0.375        0.402778     0            0
C4       C     0.40625      0.361111     0            0
C1       C     0.375        0.347222     0.333333     0
C2       C     0.40625      0.388889     0.333333     0
C3       C     0.375        0.402778     0.333333     0
C4       C     0.40625      0.361111     0.333333     0
C1       C     0.375        0.347222     0.666667     0
C2       C     0.40625      0.388889     0.666667     0
C3       C     0.375        0.402778     0.666667     0
C4       C     0.40625      0.361111     0.666667     0
C1       C     0.375        0.430556     0            0
C2       C     0.40625      0.472223     0            0
C3       C     0.375        0.486111     0            0
C4       C     0.40625      0.444444     0            0
C1       C     0.375        0.430556     0.333333     0
C2       C     0.40625      0.472223     0.333333     0
C3       C     0.375        0.486111     0.333333     0
C4       C     0.40625      0.444444     0.333333     0
C1       C     0.375        0.430556     0.666667     0
C2       C     0.40625      0.472223     0.666667     0
C3       C     0.375        0.486111     0.666667     0
C4       C     0.40625      0.444444     0.666667     0
C1       C     0.375        0.513889     0            0
C2       C     0.40625      0.555556     0            0
C3       C     0.375        0.569444     0            0
C4       C     0.40625      0.527778     0            0
C1       C     0.375        0.513889     0.333333     0
C2       C     0.40625      0.555556     0.333333     0
C3       C     0.375        0.569444     0.333333     0
C4       C     0.40625      0.527778     0.333333     0
C1       C     0.375        0.513889     0.666667     0
C2       C     0.40625      0.555556     0.666667     0
C3       C     0.375        0.569444     0.666667     0
C4       C     0.40625      0.527778     0.666667     0
C1       C     0.375        0.597222     0            0
C2       C     0.40625      0.638889     0            0
C3       C     0.375        0.652778     0            0
C4       C     0.40625      0.611111     0            0
C1       C     0.375        0.597222     0.333333     0
C2       C     0.40625      0.638889     0.333333     0
C3       C     0.375        0.652778     0.333333     0
C4       C     0.40625      0.611111     0.333333     0
C1       C     0.375        0.597222     0.666667     0
C2       C     0.40625      0.638889     0.666667     0
C3       C     0.375        0.652778     0.666667     0
C4       C     0.40625      0.611111     0.666667     0
C1       C     0.375        0.680556     0            0
C2       C     0.40625      0.722222     0            0
C3       C     0.375        0.736111     0            0
C4       C     0.40625      0.694444     0            0
C1       C     0.375        0.680556     0.333333     0
C2       C     0.40625      0.722222     0.333333     0
C3       C     0.375        0.736111     0.333333     0
C4       C     0.40625      0.694444     0.333333     0
C1       C     0.375        0.680556     0.666667     0
C2       C     0.40625      0.722222     0.666667     0
C3       C     0.375        0.736111     0.666667     0
C4       C     0.40625      0.694444     0.666667     0
C1       C     0.375        0.763889     0            0
C2       C     0.40625      0.805556     0            0
C3       C     0.375        0.819444     0            0
C4       C     0.40625      0.777778     0            0
C1       C     0.375        0.763889     0.333333     0
C2       C     0.40625      0.805556     0.333333     0
C3       C     0.375        0.819444     0.333333     0
C4       C     0.40625      0.777778     0.333333     0
C1       C     0.375        0.763889     0.666667     0
C2       C     0.40625      0.805556     0.666667     0
C3       C     0.375        0.819444     0.666667     0
C4       C     0.40625      0.777778     0.666667     0
C1       C     0.375        0.847222     0            0
C2       C     0.40625      0.888889     0            0
C3       C     0.375        0.902778     0            0
C4       C     0.40625      0.861111     0            0
C1       C     0.375        0.847222     0.333333     0
C2       C     0.40625      0.888889     0.333333     0
C3       C     0.375        0.902778     0.333333     0
C4       C     0.40625      0.861111     0.333333     0
C1       C     0.375        0.847222     0.666667     0
C2       C     0.40625      0.888889     0.666667     0
C3       C     0.375        0.902778     0.666667     0
C4       C     0.40625      0.861111     0.666667     0
C1       C     0.375        0.930556     0            0
C2       C     0.40625      0.972222     0            0
C3       C     0.375        0.986111     0            0
C4       C     0.40625      0.944444     0            0
C1       C     0.375        0.930556     0.333333     0
C2       C     0.40625      0.972222     0.333333     0
C3       C     0.375        0.986111     0.333333     0
C4       C     0.40625      0.944444     0.333333     0
C1       C     0.375        0.930556     0.666667     0
C2       C     0.40625      0.972222     0.666667     0
C3       C     0.375        0.986111     0.666667     0
C4       C     0.40625      0.944444     0.666667     0
C1       C     0.4375       0.0138892    0            0
C2       C     0.46875      0.0555558    0            0
C3       C     0.4375       0.0694442    0            0
C4       C     0.46875      0.0277775    0            0
C1       C     0.4375       0.0138892    0.333333     0
C2       C     0.46875      0.0555558    0.333333     0
C3       C     0.4375       0.0694442    0.333333     0
C4       C     0.46875      0.0277775    0.333333     0
C1       C     0.4375       0.0138892    0.666667     0
C2       C     0.46875      0.0555558    0.666667     0
C3       C     0.4375       0.0694442    0.666667     0
C4       C     0.46875      0.0277775    0.666667     0
C1       C     0.4375       0.0972225    0            0
C2       C     0.46875      0.138889     0            0
C3       C     0.4375       0.152778     0            0
C4       C     0.46875      0.111111     0            0
C1       C     0.4375       0.0972225    0.333333     0
C2       C     0.46875      0.138889     0.333333     0
C3       C     0.4375       0.152777     0.333333     0
C4       C     0.46875      0.111111     0.333333     0
C1       C     0.4375       0.0972225    0.666667     0
C2       C     0.46875      0.138889     0.666667     0
C3       C     0.4375       0.152778     0.666667     0
C4       C     0.46875      0.111111     0.666667     0
C1       C     0.4375       0.180556     0            0
C2       C     0.46875      0.222222     0            0
C3       C     0.4375       0.236111     0            0
C4       C     0.46875      0.194444     0            0
C1       C     0.4375       0.180556     0.333333     0
C2       C     0.46875      0.222222     0.333333     0
C3       C     0.4375       0.236111     0.333333     0
C4       C     0.46875      0.194444     0.333333     0
C1       C     0.4375       0.180556     0.666667     0
C2       C     0.46875      0.222222     0.666667     0
C3       C     0.4375       0.236111     0.666667     0
C4       C     0.46875      0.194444     0.666667     0
C1       C     0.4375       0.263889     0            0
C2       C     0.46875      0.305556     0            0
C3       C     0.4375       0.319444     0            0
C4       C     0.46875      0.277778     0            0
C1       C     0.4375       0.263889     0.333333     0
C2       C     0.46875      0.305556     0.333333     0
C3       C     0.4375       0.319444     0.333333     0
C4       C     0.46875      0.277778     0.333333     0
C1       C     0.4375       0.263889     0.666667     0
C2       C     0.46875      0.305556     0.666667     0
C3       C     0.4375       0.319444     0.666667     0
C4       C     0.46875      0.277778     0.666667     0
C1       C     0.4375       0.347222     0            0
C2       C     0.46875      0.388889     0            0
C3       C     0.4375       0.402778     0            0
C4       C     0.46875      0.361111     0            0
C1       C     0.4375       0.347222     0.333333     0
C2       C     0.46875      0.388889     0.333333     0
C3       C     0.4375       0.402778     0.333333     0
C4       C     0.46875      0.361111     0.333333     0
C1       C     0.4375       0.347222     0.666667     0
C2       C     0.46875      0.388889     0.666667     0
C3       C     0.4375       0.402778     0.666667     0
C4       C     0.46875      0.361111     0.666667     0
C1       C     0.4375       0.430556     0            0
C2       C     0.46875      0.472223     0            0
C3       C     0.4375       0.486111     0            0
C4       C     0.46875      0.444444     0            0
C1       C     0.4375       0.430556     0.333333     0
C2       C     0.46875      0.472223     0.333333     0
C3       C     0.4375       0.486111     0.333333     0
C4       C     0.46875      0.444444     0.333333     0
C1       C     0.4375       0.430556     0.666667     0
C2       C     0.46875      0.472223     0.666667     0
C3       C     0.4375       0.486111     0.666667     0
C4       C     0.46875      0.444444     0.666667     0
C1       C     0.4375       0.513889     0            0
C2       C     0.46875      0.555556     0            0
C3       C     0.4375       0.569444     0            0
C4       C     0.46875      0.527778     0            0
C1       C     0.4375       0.513889     0.333333     0
C2       C     0.46875      0.555556     0.333333     0
C3       C     0.4375       0.569444     0.333333     0
C4       C     0.46875      0.527778     0.333333     0
C1       C     0.4375       0.513889     0.666667     0
C2       C     0.46875      0.555556     0.666667     0
C3       C     0.4375       0.569444     0.666667     0
C4       C     0.46875      0.527778     0.666667     0
C1       C     0.4375       0.597222     0            0
C2       C     0.46875      0.638889     0            0
C3       C     0.4375       0.652778     0            0
C4       C     0.46875      0.611111     0            0
C1       C     0.4375       0.597222     0.333333     0
C2       C     0.46875      0.638889     0.333333     0
C3       C     0.4375       0.652778     0.333333     0
C4       C     0.46875      0.611111     0.333333     0
C1       C     0.4375       0.597222     0.666667     0
C2       C     0.46875      0.638889     0.666667     0
C3       C     0.4375       0.652778     0.666667     0
C4       C     0.46875      0.611111     0.666667     0
C1       C     0.4375       0.680556     0            0
C2       C     0.46875      0.722222     0            0
C3       C     0.4375       0.736111     0            0
C4       C     0.46875      0.694444     0            0
C1       C     0.4375       0.680556     0.333333     0
C2       C     0.46875      0.722222     0.333333     0
C3       C     0.4375       0.736111     0.333333     0
C4       C     0.46875      0.694444     0.333333     0
C1       C     0.4375       0.680556     0.666667     0
C2       C     0.46875      0.722222     0.666667     0
C3       C     0.4375       0.736111     0.666667     0
C4       C     0.46875      0.694444     0.666667     0
C1       C     0.4375       0.763889     0            0
C2       C     0.46875      0.805556     0            0
C3       C     0.4375       0.819444     0            0
C4       C     0.46875      0.777778     0            0
C1       C     0.4375       0.763889     0.333333     0
C2       C     0.46875      0.805556     0.333333     0
C3       C     0.4375       0.819444     0.333333     0
C4       C     0.46875      0.777778     0.333333     0
C1       C     0.4375       0.763889     0.666667     0
C2       C     0.46875      0.805556     0.666667     0
C3       C     0.4375       0.819444     0.666667     0
C4       C     0.46875      0.777778     0.666667     0
C1       C     0.4375       0.847222     0            0
C2       C     0.46875      0.888889     0            0
C3       C     0.4375       0.902778     0            0
C4       C     0.46875      0.861111     0            0
C1       C     0.4375       0.847222     0.333333     0
C2       C     0.46875      0.888889     0.333333     0
C3       C     0.4375       0.902778     0.333333     0
C4       C     0.46875      0.861111     0.333333     0
C1       C     0.4375       0.847222     0.666667     0
C2       C     0.46875      0.888889     0.666667     0
C3       C     0.4375       0.902778     0.666667     0
C4       C     0.46875      0.861111     0.666667     0
C1       C     0.4375       0.930556     0            0
C2       C     0.46875      0.972222     0            0
C3       C     0.4375       0.986111     0            0
C4       C     0.46875      0.944444     0            0
C1       C     0.4375       0.930556     0.333333     0
C2       C     0.46875      0.972222     0.333333     0
C3       C     0.4375       0.986111     0.333333     0
C4       C     0.46875      0.944444     0.333333     0
C1       C     0.4375       0.930556     0.666667     0
C2       C     0.46875      0.972222     0.666667     0
C3       C     0.4375       0.986111     0.666667     0
C4       C     0.46875      0.944444     0.666667     0
C1       C     0.5          0.0138892    0            0
C2       C     0.53125      0.0555558    0            0
C3       C     0.5          0.0694442    0            0
C4       C     0.53125      0.0277775    0            0
C1       C     0.5          0.0138892    0.333333     0
C2       C     0.53125      0.0555558    0.333333     0
C3       C     0.5          0.0694442    0.333333     0
C4       C     0.53125      0.0277775    0.333333     0
C1       C     0.5          0.0138892    0.666667     0
C2       C     0.53125      0.0555558    0.666667     0
C3       C     0.5          0.0694442    0.666667     0
C4       C     0.53125      0.0277775    0.666667     0
C1       C     0.5          0.0972225    0            0
C2       C     0.53125      0.138889     0            0
C3       C     0.5          0.152778     0            0
C4       C     0.53125      0.111111     0            0
C1       C     0.5          0.0972225    0.333333     0
C2       C     0.53125      0.138889     0.333333     0
C3       C     0.5          0.152777     0.333333     0
C4       C     0.53125      0.111111     0.333333     0
C1       C     0.5          0.0972225    0.666667     0
C2       C     0.53125      0.138889     0.666667     0
C3       C     0.5          0.152778     0.666667     0
C4       C     0.53125      0.111111     0.666667     0
C1       C     0.5          0.180556     0            0
C2       C     0.53125      0.222222     0            0
C3       C     0.5          0.236111     0            0
C4       C     0.53125      0.194444     0            0
C1       C     0.5          0.180556     0.333333     0
C2       C     0.53125      0.222222     0.333333     0
C3       C     0.5          0.236111     0.333333     0
C4       C     0.53125      0.194444     0.333333     0
C1       C     0.5          0.180556     0.666667     0
C2       C     0.53125      0.222222     0.666667     0
C3       C     0.5          0.236111     0.666667     0
C4       C     0.53125      0.194444     0.666667     0
C1       C     0.5          0.263889     0            0
C2       C     0.53125      0.305556     0            0
C3       C     0.5          0.319444     0            0
C4       C     0.53125      0.277778     0            0
C1       C     0.5          0.263889     0.333333     0
C2       C     0.53125      0.305556     0.333333     0
C3       C     0.5          0.319444     0.333333     0
C4       C     0.53125      0.277778     0.333333     0
C1       C     0.5          0.263889     0.666667     0
C2       C     0.53125      0.305556     0.666667     0
C3       C     0.5          0.319444     0.666667     0
C4       C     0.53125      0.277778     0.666667     0
C1       C     0.5          0.347222     0            0
C2       C     0.53125      0.388889     0            0
C3       C     0.5          0.402778     0            0
C4       C     0.53125      0.361111     0            0
C1       C     0.5          0.347222     0.333333     0
C2       C     0.53125      0.388889     0.333333     0
C3       C     0.5          0.402778     0.333333     0
C4       C     0.53125      0.361111     0.333333     0
C1       C     0.5          0.347222     0.666667     0
C2       C     0.53125      0.388889     0.666667     0
C3       C     0.5          0.402778     0.666667     0
C4       C     0.53125      0.361111     0.666667     0
C1       C     0.5          0.430556     0            0
C2       C     0.53125      0.472223     0            0
C3       C     0.5          0.486111     0            0
C4       C     0.53125      0.444444     0            0
C1       C     0.5          0.430556     0.333333     0
C2       C     0.53125      0.472223     0.333333     0
C3       C     0.5          0.486111     0.333333     0
C4       C     0.53125      0.444444     0.333333     0
C1       C     0.5          0.430556     0.666667     0
C2       C     0.53125      0.472223     0.666667     0
C3       C     0.5          0.486111     0.666667     0
C4       C     0.53125      0.444444     0.666667     0
C1       C     0.5          0.513889     0            0
C2       C     0.53125      0.555556     0            0
C3       C     0.5          0.569444     0            0
C4       C     0.53125      0.527778     0            0
C1       C     0.5          0.513889     0.333333     0
C2       C     0.53125      0.555556     0.333333     0
C3       C     0.5          0.569444     0.333333     0
C4       C     0.53125      0.527778     0.333333     0
C1       C     0.5          0.513889     0.666667     0
C2       C     0.53125      0.555556     0.666667     0
C3       C     0.5          0.569444     0.666667     0
C4       C     0.53125      0.527778     0.666667     0
C1       C     0.5          0.597222     0            0
C2       C     0.53125      0.638889     0            0
C3       C     0.5          0.652778     0            0
C4       C     0.53125      0.611111     0            0
C1       C     0.5          0.597222     0.333333     0
C2       C     0.53125      0.638889     0.333333     0
C3       C     0.5          0.652778     0.333333     0
C4       C     0.53125      0.611111     0.333333     0
C1       C     0.5          0.597222     0.666667     0
C2       C     0.53125      0.638889     0.666667     0
C3       C     0.5          0.652778     0.666667     0
C4       C     0.53125      0.611111     0.666667     0
C1       C     0.5          0.680556     0            0
C2       C     0.53125      0.722222     0            0
C3       C     0.5          0.736111     0            0
C4       C     0.53125      0.694444     0            0
C1       C     0.5          0.680556     0.333333     0
C2       C     0.53125      0.722222     0.333333     0
C3       C     0.5          0.736111     0.333333     0
C4       C     0.53125      0.694444     0.333333     0
C1       C     0.5          0.680556     0.666667     0
C2       C     0.53125      0.722222     0.666667     0
C3       C     0.5          0.736111     0.666667     0
C4       C     0.53125      0.694444     0.666667     0
C1       C     0.5          0.763889     0            0
C2       C     0.53125      0.805556     0            0
C3       C     0.5          0.819444     0            0
C4       C     0.53125      0.777778     0            0
C1       C     0.5          0.763889     0.333333     0
C2       C     0.53125      0.805556     0.333333     0
C3       C     0.5          0.819444     0.333333     0
C4       C     0.53125      0.777778     0.333333     0
C1       C     0.5          0.763889     0.666667     0
C2       C     0.53125      0.805556     0.666667     0
C3       C     0.5          0.819444     0.666667     0
C4       C     0.53125      0.777778     0.666667     0
C1       C     0.5          0.847222     0            0
C2       C     0.53125      0.888889     0            0
C3       C     0.5          0.902778     0            0
C4       C     0.53125      0.861111     0            0
C1       C     0.5          0.847222     0.333333     0
C2       C     0.53125      0.888889     0.333333     0
C3       C     0.5          0.902778     0.333333     0
C4       C     0.53125      0.861111     0.333333     0
C1       C     0.5          0.847222     0.666667     0
C2       C     0.53125      0.888889     0.666667     0
C3       C     0.5          0.902778     0.666667     0
C4       C     0.53125      0.861111     0.666667     0
C1       C     0.5          0.930556     0            0
C2       C     0.53125      0.972222     0            0
C3       C     0.5          0.986111     0            0
C4       C     0.53125      0.944444     0            0
C1       C     0.5          0.930556     0.333333     0
C2       C     0.53125      0.972222     0.333333     0
C3       C     0.5          0.986111     0.333333     0
C4       C     0.53125      0.944444     0.333333     0
C1       C     0.5          0.930556     0.666667     0
C2       C     0.53125      0.972222     0.666667     0
C3       C     0.5          0.986111     0.666667     0
C4       C     0.53125      0.944444     0.666667     0
C1       C     0.5625       0.0138892    0            0
C2       C     0.59375      0.0555558    0            0
C3       C     0.5625       0.0694442    0            0
C4       C     0.59375      0.0277775    0            0
C1       C     0.5625       0.0138892    0.333333     0
C2       C     0.59375      0.0555558    0.333333     0
C3       C     0.5625       0.0694442    0.333333     0
C4       C     0.59375      0.0277775    0.333333     0
C1       C     0.5625       0.0138892    0.666667     0
C2       C     0.59375      0.0555558    0.666667     0
C3       C     0.5625       0.0694442    0.666667     0
C4       C     0.59375      0.0277775    0.666667     0
C1       C     0.5625       0.0972225    0            0
C2       C     0.59375      0.138889     0            0
C3       C     0.5625       0.152778     0            0
C4       C     0.59375      0.111111     0            0
C1       C     0.5625       0.0972225    0.333333     0
C2       C     0.59375      0.138889     0.333333     0
C3       C     0.5625       0.152777     0.333333     0
C4       C     0.59375      0.111111     0.333333     0
C1       C     0.5625       0.0972225    0.666667     0
C2       C     0.59375      0.138889     0.666667     0
C3       C     0.5625       0.152778     0.666667     0
C4       C     0.59375      0.111111     0.666667     0
C1       C     0.5625       0.180556     0            0
C2       C     0.59375      0.222222     0            0
C3       C     0.5625       0.236111     0            0
C4       C     0.59375      0.194444     0            0
C1       C     0.5625       0.180556     0.333333     0
C2       C     0.59375      0.222222     0.333333     0
C3       C     0.5625       0.236111     0.333333     0
C4       C     0.59375      0.194444     0.333333     0
C1       C     0.5625       0.180556     0.666667     0
C2       C     0.59375      0.222222     0.666667     0
C3       C     0.5625       0.236111     0.666667     0
C4       C     0.59375      0.194444     0.666667     0
C1       C     0.5625       0.263889     0            0
C2       C     0.59375      0.305556     0            0
C3       C     0.5625       0.319444     0            0
C4       C     0.59375      0.277778     0            0
C1       C     0.5625       0.263889     0.333333     0
C2       C     0.59375      0.305556     0.333333     0
C3       C     0.5625       0.319444     0.333333     0
C4       C     0.59375      0.277778     0.333333     0
C1       C     0.5625       0.263889     0.666667     0
C2       C     0.59375      0.305556     0.666667     0
C3       C     0.5625       0.319444     0.666667     0
C4       C     0.59375      0.277778     0.666667     0
C1       C     0.5625       0.347222     0            0
C2       C     0.59375      0.388889     0            0
C3       C     0.5625       0.402778     0            0
C4       C     0.59375      0.361111     0            0
C1       C     0.5625       0.347222     0.333333     0
C2       C     0.59375      0.388889     0.333333     0
C3       C     0.5625       0.402778     0.333333     0
C4       C     0.59375      0.361111     0.333333     0
C1       C     0.5625       0.347222     0.666667     0
C2       C     0.59375      0.388889     0.666667     0
C3       C     0.5625       0.402778     0.666667     0
C4       C     0.59375      0.361111     0.666667     0
C1       C     0.5625       0.430556     0            0
C2       C     0.59375      0.472223     0            0
C3       C     0.5625       0.486111     0            0
C4       C     0.59375      0.444444     0            0
C1       C     0.5625       0.430556     0.333333     0
C2       C     0.59375      0.472223     0.333333     0
C3       C     0.5625       0.486111     0.333333     0
C4       C     0.59375      0.444444     0.333333     0
C1       C     0.5625       0.430556     0.666667     0
C2       C     0.59375      0.472223     0.666667     0
C3       C     0.5625       0.486111     0.666667     0
C4       C     0.59375      0.444444     0.666667     0
C1       C     0.5625       0.513889     0            0
C2       C     0.59375      0.555556     0            0
C3       C     0.5625       0.569444     0            0
C4       C     0.59375      0.527778     0            0
C1       C     0.5625       0.513889     0.333333     0
C2       C     0.59375      0.555556     0.333333     0
C3       C     0.5625       0.569444     0.333333     0
C4       C     0.59375      0.527778     0.333333     0
C1       C     0.5625       0.513889     0.666667     0
C2       C     0.59375      0.555556     0.666667     0
C3       C     0.5625       0.569444     0.666667     0
C4       C     0.59375      0.527778     0.666667     0
C1       C     0.5625       0.597222     0            0
C2       C     0.59375      0.638889     0            0
C3       C     0.5625       0.652778     0            0
C4       C     0.59375      0.611111     0            0
C1       C     0.5625       0.597222     0.333333     0
C2       C     0.59375      0.638889     0.333333     0
C3       C     0.5625       0.652778     0.333333     0
C4       C     0.59375      0.611111     0.333333     0
C1       C     0.5625       0.597222     0.666667     0
C2       C     0.59375      0.638889     0.666667     0
C3       C     0.5625       0.652778     0.666667     0
C4       C     0.59375      0.611111     0.666667     0
C1       C     0.5625       0.680556     0            0
C2       C     0.59375      0.722222     0            0
C3       C     0.5625       0.736111     0            0
C4       C     0.59375      0.694444     0            0
C1       C     0.5625       0.680556     0.333333     0
C2       C     0.59375      0.722222     0.333333     0
C3       C     0.5625       0.736111     0.333333     0
C4       C     0.59375      0.694444     0.333333     0
C1       C     0.5625       0.680556     0.666667     0
C2       C     0.59375      0.722222     0.666667     0
C3       C     0.5625       0.736111     0.666667     0
C4       C     0.59375      0.694444     0.666667     0
C1       C     0.5625       0.763889     0            0
C2       C     0.59375      0.805556     0            0
C3       C     0.5625       0.819444     0            0
C4       C     0.59375      0.777778     0            0
C1       C     0.5625       0.763889     0.333333     0
C2       C     0.59375      0.805556     0.333333     0
C3       C     0.5625       0.819444     0.333333     0
C4       C     0.59375      0.777778     0.333333     0
C1       C     0.5625       0.763889     0.666667     0
C2       C     0.59375      0.805556     0.666667     0
C3       C     0.5625       0.819444     0.666667     0
C4       C     0.59375      0.777778     0.666667     0
C1       C     0.5625       0.847222     0            0
C2       C     0.59375      0.888889     0            0
C3       C     0.5625       0.902778     0            0
C4       C     0.59375      0.861111     0            0
C1       C     0.5625       0.847222     0.333333     0
C2       C     0.59375      0.888889     0.333333     0
C3       C     0.5625       0.902778     0.333333     0
C4       C     0.59375      0.861111     0.333333     0
C1       C     0.5625       0.847222     0.666667     0
C2       C     0.59375      0.888889     0.666667     0
C3       C     0.5625       0.902778     0.666667     0
C4       C     0.59375      0.861111     0.666667     0
C1       C     0.5625       0.930556     0            0
C2       C     0.59375      0.972222     0            0
C3       C     0.5625       0.986111     0            0
C4       C     0.59375      0.944444     0            0
C1       C     0.5625       0.930556     0.333333     0
C2       C     0.59375      0.972222     0.333333     0
C3       C     0.5625       0.986111     0.333333     0
C4       C     0.59375      0.944444     0.333333     0
C1       C     0.5625       0.930556     0.666667     0
C2       C     0.59375      0.972222     0.666667     0
C3       C     0.5625       0.986111     0.666667     0
C4       C     0.59375      0.944444     0.666667     0
C1       C     0.625        0.0138892    0            0
C2       C     0.65625      0.0555558    0            0
C3       C     0.625        0.0694442    0            0
C4       C     0.65625      0.0277775    0            0
C1       C     0.625        0.0138892    0.333333     0
C2       C     0.65625      0.0555558    0.333333     0
C3       C     0.625        0.0694442    0.333333     0
C4       C     0.65625      0.0277775    0.333333     0
C1       C     0.625        0.0138892    0.666667     0
C2       C     0.65625      0.0555558    0.666667     0
C3       C     0.625        0.0694442    0.666667     0
C4       C     0.65625      0.0277775    0.666667     0
C1       C     0.625        0.0972225    0            0
C2       C     0.65625      0.138889     0            0
C3       C     0.625        0.152778     0            0
C4       C     0.65625      0.111111     0            0
C1       C     0.625        0.0972225    0.333333     0
C2       C     0.65625      0.138889     0.333333     0
C3       C     0.625        0.152777     0.333333     0
C4       C     0.65625      0.111111     0.333333     0
C1       C     0.625        0.0972225    0.666667     0
C2       C     0.65625      0.138889     0.666667     0
C3       C     0.625        0.152778     0.666667     0
C4       C     0.65625      0.111111     0.666667     0
C1       C     0.625        0.180556     0            0
C2       C     0.65625      0.222222     0            0
C3       C     0.625        0.236111     0            0
C4       C     0.65625      0.194444     0            0
C1       C     0.625        0.180556     0.333333     0
C2       C     0.65625      0.222222     0.333333     0
C3       C     0.625        0.236111     0.333333     0
C4       C     0.65625      0.194444     0.333333     0
C1       C     0.625        0.180556     0.666667     0
C2       C     0.65625      0.222222     0.666667     0
C3       C     0.625        0.236111     0.666667     0
C4       C     0.65625      0.194444     0.666667     0
C1       C     0.625        0.263889     0            0
C2       C     0.65625      0.305556     0            0
C3       C     0.625        0.319444     0            0
C4       C     0.65625      0.277778     0            0
C1       C     0.625        0.263889     0.333333     0
C2       C     0.65625      0.305556     0.333333     0
C3       C     0.625        0.319444     0.333333     0
C4       C     0.65625      0.277778     0.333333     0
C1       C     0.625        0.263889     0.666667     0
C2       C     0.65625      0.305556     0.666667     0
C3       C     0.625        0.319444     0.666667     0
C4       C     0.65625      0.277778     0.666667     0
C1       C     0.625        0.347222     0            0
C2       C     0.65625      0.388889     0            0
C3       C     0.625        0.402778     0            0
C4       C     0.65625      0.361111     0            0
C1       C     0.625        0.347222     0.333333     0
C2       C     0.65625      0.388889     0.333333     0
C3       C     0.625        0.402778     0.333333     0
C4       C     0.65625      0.361111     0.333333     0
C1       C     0.625        0.347222     0.666667     0
C2       C     0.65625      0.388889     0.666667     0
C3       C     0.625        0.402778     0.666667     0
C4       C     0.65625      0.361111     0.666667     0
C1       C     0.625        0.430556     0            0
C2       C     0.65625      0.472223     0            0
C3       C     0.625        0.486111     0            0
C4       C     0.65625      0.444444     0            0
C1       C     0.625        0.430556     0.333333     0
C2       C     0.65625      0.472223     0.333333     0
C3       C     0.625        0.486111     0.333333     0
C4       C     0.65625      0.444444     0.333333     0
C1       C     0.625        0.430556     0.666667     0
C2       C     0.65625      0.472223     0.666667     0
C3       C     0.625        0.486111     0.666667     0
C4       C     0.65625      0.444444     0.666667     0
C1       C     0.625        0.513889     0            0
C2       C     0.65625      0.555556     0            0
C3       C     0.625        0.569444     0            0
C4       C     0.65625      0.527778     0            0
C1       C     0.625        0.513889     0.333333     0
C2       C     0.65625      0.555556     0.333333     0
C3       C     0.625        0.569444     0.333333     0
C4       C     0.65625      0.527778     0.333333     0
C1       C     0.625        0.513889     0.666667     0
C2       C     0.65625      0.555556     0.666667     0
C3       C     0.625        0.569444     0.666667     0
C4       C     0.65625      0.527778     0.666667     0
C1       C     0.625        0.597222     0            0
C2       C     0.65625      0.638889     0            0
C3       C     0.625        0.652778     0            0
C4       C     0.65625      0.611111     0            0
C1       C     0.625        0.597222     0.333333     0
C2       C     0.65625      0.638889     0.333333     0
C3       C     0.625        0.652778     0.333333     0
C4       C     0.65625      0.611111     0.333333     0
C1       C     0.625        0.597222     0.666667     0
C2       C     0.65625      0.638889     0.666667     0
C3       C     0.625        0.652778     0.666667     0
C4       C     0.65625      0.611111     0.666667     0
C1       C     0.625        0.680556     0            0
C2       C     0.65625      0.722222     0            0
C3       C     0.625        0.736111     0            0
C4       C     0.65625      0.694444     0            0
C1       C     0.625        0.680556     0.333333     0
C2       C     0.65625      0.722222     0.333333     0
C3       C     0.625        0.736111     0.333333     0
C4       C     0.65625      0.694444     0.333333     0
C1       C     0.625        0.680556     0.666667     0
C2       C     0.65625      0.722222     0.666667     0
C3       C     0.625        0.736111     0.666667     0
C4       C     0.65625      0.694444     0.666667     0
C1       C     0.625        0.763889     0            0
C2       C     0.65625      0.805556     0            0
C3       C     0.625        0.819444     0            0
C4       C     0.65625      0.777778     0            0
C1       C     0.625        0.763889     0.333333     0
C2       C     0.65625      0.805556     0.333333     0
C3       C     0.625        0.819444     0.333333     0
C4       C     0.65625      0.777778     0.333333     0
C1       C     0.625        0.763889     0.666667     0
C2       C     0.65625      0.805556     0.666667     0
C3       C     0.625        0.819444     0.666667     0
C4       C     0.65625      0.777778     0.666667     0
C1       C     0.625        0.847222     0            0
C2       C     0.65625      0.888889     0            0
C3       C     0.625        0.902778     0            0
C4       C     0.65625      0.861111     0            0
C1       C     0.625        0.847222     0.333333     0
C2       C     0.65625      0.888889     0.333333     0
C3       C     0.625        0.902778     0.333333     0
C4       C     0.65625      0.861111     0.333333     0
C1       C     0.625        0.847222     0.666667     0
C2       C     0.65625      0.888889     0.666667     0
C3       C     0.625        0.902778     0.666667     0
C4       C     0.65625      0.861111     0.666667     0
C1       C     0.625        0.930556     0            0
C2       C     0.65625      0.972222     0            0
C3       C     0.625        0.986111     0            0
C4       C     0.65625      0.944444     0            0
C1       C     0.625        0.930556     0.333333     0
C2       C     0.65625      0.972222     0.333333     0
C3       C     0.625        0.986111     0.333333     0
C4       C     0.65625      0.944444     0.333333     0
C1       C     0.625        0.930556     0.666667     0
C2       C     0.65625      0.972222     0.666667     0
C3       C     0.625        0.986111     0.666667     0
C4       C     0.65625      0.944444     0.666667     0
C1       C     0.6875       0.0138892    0            0
C2       C     0.71875      0.0555558    0            0
C3       C     0.6875       0.0694442    0            0
C4       C     0.71875      0.0277775    0            0
C1       C     0.6875       0.0138892    0.333333     0
C2       C     0.71875      0.0555558    0.333333     0
C3       C     0.6875       0.0694442    0.333333     0
C4       C     0.71875      0.0277775    0.333333     0
C1       C     0.6875       0.0138892    0.666667     0
C2       C     0.71875      0.0555558    0.666667     0
C3       C     0.6875       0.0694442    0.666667     0
C4       C     0.71875      0.0277775    0.666667     0
C1       C     0.6875       0.0972225    0            0
C2       C     0.71875      0.138889     0            0
C3       C     0.6875       0.152778     0            0
C4       C     0.71875      0.111111     0            0
C1       C     0.6875       0.0972225    0.333333     0
C2       C     0.71875      0.138889     0.333333     0
C3       C     0.6875       0.152777     0.333333     0
C4       C     0.71875      0.111111     0.333333     0
C1       C     0.6875       0.0972225    0.666667     0
C2       C     0.71875      0.138889     0.666667     0
C3       C     0.6875       0.152778     0.666667     0
C4       C     0.71875      0.111111     0.666667     0
C1       C     0.6875       0.180556     0            0
C2       C     0.71875      0.222222     0            0
C3       C     0.6875       0.236111     0            0
C4       C     0.71875      0.194444     0            0
C1       C     0.6875       0.180556     0.333333     0
C2       C     0.71875      0.222222     0.333333     0
C3       C     0.6875       0.236111     0.333333     0
C4       C     0.71875      0.194444     0.333333     0
C1       C     0.6875       0.180556     0.666667     0
C2       C     0.71875      0.222222     0.666667     0
C3       C     0.6875       0.236111     0.666667     0
C4       C     0.71875      0.194444     0.666667     0
C1       C     0.6875       0.263889     0            0
C2       C     0.71875      0.305556     0            0
C3       C     0.6875       0.319444     0            0
C4       C     0.71875      0.277778     0            0
C1       C     0.6875       0.263889     0.333333     0
C2       C     0.71875      0.305556     0.333333     0
C3       C     0.6875       0.319444     0.333333     0
C4       C     0.71875      0.277778     0.333333     0
C1       C     0.6875       0.263889     0.666667     0
C2       C     0.71875      0.305556     0.666667     0
C3       C     0.6875       0.319444     0.666667     0
C4       C     0.71875      0.277778     0.666667     0
C1       C     0.6875       0.347222     0            0
C2       C     0.71875      0.388889     0            0
C3       C     0.6875       0.402778     0            0
C4       C     0.71875      0.361111     0            0
C1       C     0.6875       0.347222     0.333333     0
C2       C     0.71875      0.388889     0.333333     0
C3       C     0.6875       0.402778     0.333333     0
C4       C     0.71875      0.361111     0.333333     0
C1       C     0.6875       0.347222     0.666667     0
C2       C     0.71875      0.388889     0.666667     0
C3       C     0.6875       0.402778     0.666667     0
C4       C     0.71875      0.361111     0.666667     0
C1       C     0.6875       0.430556     0            0
C2       C     0.71875      0.472223     0            0
C3       C     0.6875       0.486111     0            0
C4       C     0.71875      0.444444     0            0
C1       C     0.6875       0.430556     0.333333     0
C2       C     0.71875      0.472223     0.333333     0
C3       C     0.6875       0.486111     0.333333     0
C4       C     0.71875      0.444444     0.333333     0
C1       C     0.6875       0.430556     0.666667     0
C2       C     0.71875      0.472223     0.666667     0
C3       C     0.6875       0.486111     0.666667     0
C4       C     0.71875      0.444444     0.666667     0
C1       C     0.6875       0.513889     0            0
C2       C     0.71875      0.555556     0            0
C3       C     0.6875       0.569444     0            0
C4       C     0.71875      0.527778     0            0
C1       C     0.6875       0.513889     0.333333     0
C2       C     0.71875      0.555556     0.333333     0
C3       C     0.6875       0.569444     0.333333     0
C4       C     0.71875      0.527778     0.333333     0
C1       C     0.6875       0.513889     0.666667     0
C2       C     0.71875      0.555556     0.666667     0
C3       C     0.6875       0.569444     0.666667     0
C4       C     0.71875      0.527778     0.666667     0
C1       C     0.6875       0.597222     0            0
C2       C     0.71875      0.638889     0            0
C3       C     0.6875       0.652778     0            0
C4       C     0.71875      0.611111     0            0
C1       C     0.6875       0.597222     0.333333     0
C2       C     0.71875      0.638889     0.333333     0
C3       C     0.6875       0.652778     0.333333     0
C4       C     0.71875      0.611111     0.333333     0
C1       C     0.6875       0.597222     0.666667     0
C2       C     0.71875      0.638889     0.666667     0
C3       C     0.6875       0.652778     0.666667     0
C4       C     0.71875      0.611111     0.666667     0
C1       C     0.6875       0.680556     0            0
C2       C     0.71875      0.722222     0            0
C3       C     0.6875       0.736111     0            0
C4       C     0.71875      0.694444     0            0
C1       C     0.6875       0.680556     0.333333     0
C2       C     0.71875      0.722222     0.333333     0
C3       C     0.6875       0.736111     0.333333     0
C4       C     0.71875      0.694444     0.333333     0
C1       C     0.6875       0.680556     0.666667     0
C2       C     0.71875      0.722222     0.666667     0
C3       C     0.6875       0.736111     0.666667     0
C4       C     0.71875      0.694444     0.666667     0
C1       C     0.6875       0.763889     0            0
C2       C     0.71875      0.805556     0            0
C3       C     0.6875       0.819444     0            0
C4       C     0.71875      0.777778     0            0
C1       C     0.6875       0.763889     0.333333     0
C2       C     0.71875      0.805556     0.333333     0
C3       C     0.6875       0.819444     0.333333     0
C4       C     0.71875      0.777778     0.333333     0
C1       C     0.6875       0.763889     0.666667     0
C2       C     0.71875      0.805556     0.666667     0
C3       C     0.6875       0.819444     0.666667     0
C4       C     0.71875      0.777778     0.666667     0
C1       C     0.6875       0.847222     0            0
C2       C     0.71875      0.888889     0            0
C3       C     0.6875       0.902778     0            0
C4       C     0.71875      0.861111     0            0
C1       C     0.6875       0.847222     0.333333     0
C2       C     0.71875      0.888889     0.333333     0
C3       C     0.6875       0.902778     0.333333     0
C4       C     0.71875      0.861111     0.333333     0
C1       C     0.6875       0.847222     0.666667     0
C2       C     0.71875      0.888889     0.666667     0
C3       C     0.6875       0.902778     0.666667     0
C4       C     0.71875      0.861111     0.666667     0
C1       C     0.6875       0.930556     0            0
C2       C     0.71875      0.972222     0            0
C3       C     0.6875       0.986111     0            0
C4       C     0.71875      0.944444     0            0
C1       C     0.6875       0.930556     0.333333     0
C2       C     0.71875      0.972222     0.333333     0
C3       C     0.6875       0.986111     0.333333     0
C4       C     0.71875      0.944444     0.333333     0
C1       C     0.6875       0.930556     0.666667     0
C2       C     0.71875      0.972222     0.666667     0
C3       C     0.6875       0.986111     0.666667     0
C4       C     0.71875      0.944444     0.666667     0
C1       C     0.75         0.0138892    0            0
C2       C     0.78125      0.0555558    0            0
C3       C     0.75         0.0694442    0            0
C4       C     0.78125      0.0277775    0            0
C1       C     0.75         0.0138892    0.333333     0
C2       C     0.78125      0.0555558    0.333333     0
C3       C     0.75         0.0694442    0.333333     0
C4       C     0.78125      0.0277775    0.333333     0
C1       C     0.75         0.0138892    0.666667     0
C2       C     0.78125      0.0555558    0.666667     0
C3       C     0.75         0.0694442    0.666667     0
C4       C     0.78125      0.0277775    0.666667     0
C1       C     0.75         0.0972225    0            0
C2       C     0.78125      0.138889     0            0
C3       C     0.75         0.152778     0            0
C4       C     0.78125      0.111111     0            0
C1       C     0.75         0.0972225    0.333333     0
C2       C     0.78125      0.138889     0.333333     0
C3       C     0.75         0.152777     0.333333     0
C4       C     0.78125      0.111111     0.333333     0
C1       C     0.75         0.0972225    0.666667     0
C2       C     0.78125      0.138889     0.666667     0
C3       C     0.75         0.152778     0.666667     0
C4       C     0.78125      0.111111     0.666667     0
C1       C     0.75         0.180556     0            0
C2       C     0.78125      0.222222     0            0
C3       C     0.75         0.236111     0            0
C4       C     0.78125      0.194444     0            0
C1       C     0.75         0.180556     0.333333     0
C2       C     0.78125      0.222222     0.333333     0
C3       C     0.75         0.236111     0.333333     0
C4       C     0.78125      0.194444     0.333333     0
C1       C     0.75         0.180556     0.666667     0
C2       C     0.78125      0.222222     0.666667     0
C3       C     0.75         0.236111     0.666667     0
C4       C     0.78125      0.194444     0.666667     0
C1       C     0.75         0.263889     0            0
C2       C     0.78125      0.305556     0            0
C3       C     0.75         0.319444     0            0
C4       C     0.78125      0.277778     0            0
C1       C     0.75         0.263889     0.333333     0
C2       C     0.78125      0.305556     0.333333     0
C3       C     0.75         0.319444     0.333333     0
C4       C     0.78125      0.277778     0.333333     0
C1       C     0.75         0.263889     0.666667     0
C2       C     0.78125      0.305556     0.666667     0
C3       C     0.75         0.319444     0.666667     0
C4       C     0.78125      0.277778     0.666667     0
C1       C     0.75         0.347222     0            0
C2       C     0.78125      0.388889     0            0
C3       C     0.75         0.402778     0            0
C4       C     0.78125      0.361111     0            0
C1       C     0.75         0.347222     0.333333     0
C2       C     0.78125      0.388889     0.333333     0
C3       C     0.75         0.402778     0.333333     0
C4       C     0.78125      0.361111     0.333333     0
C1       C     0.75         0.347222     0.666667     0
C2       C     0.78125      0.388889     0.666667     0
C3       C     0.75         0.402778     0.666667     0
C4       C     0.78125      0.361111     0.666667     0
C1       C     0.75         0.430556     0            0
C2       C     0.78125      0.472223     0            0
C3       C     0.75         0.486111     0            0
C4       C     0.78125      0.444444     0            0
C1       C     0.75         0.430556     0.333333     0
C2       C     0.78125      0.472223     0.333333     0
C3       C     0.75         0.486111     0.333333     0
C4       C     0.78125      0.444444     0.333333     0
C1       C     0.75         0.430556     0.666667     0
C2       C     0.78125      0.472223     0.666667     0
C3       C     0.75         0.486111     0.666667     0
C4       C     0.78125      0.444444     0.666667     0
C1       C     0.75         0.513889     0            0
C2       C     0.78125      0.555556     0            0
C3       C     0.75         0.569444     0            0
C4       C     0.78125      0.527778     0            0
C1       C     0.75         0.513889     0.333333     0
C2       C     0.78125      0.555556     0.333333     0
C3       C     0.75         0.569444     0.333333     0
C4       C     0.78125      0.527778     0.333333     0
C1       C     0.75         0.513889     0.666667     0
C2       C     0.78125      0.555556     0.666667     0
C3       C     0.75         0.569444     0.666667     0
C4       C     0.78125      0.527778     0.666667     0
C1       C     0.75         0.597222     0            0
C2       C     0.78125      0.638889     0            0
C3       C     0.75         0.652778     0            0
C4       C     0.78125      0.611111     0            0
C1       C     0.75         0.597222     0.333333     0
C2       C     0.78125      0.638889     0.333333     0
C3       C     0.75         0.652778     0.333333     0
C4       C     0.78125      0.611111     0.333333     0
C1       C     0.75         0.597222     0.666667     0
C2       C     0.78125      0.638889     0.666667     0
C3       C     0.75         0.652778     0.666667     0
C4       C     0.78125      0.611111     0.666667     0
C1       C     0.75         0.680556     0            0
C2       C     0.78125      0.722222     0            0
C3       C     0.75         0.736111     0            0
C4       C     0.78125      0.694444     0            0
C1       C     0.75         0.680556     0.333333     0
C2       C     0.78125      0.722222     0.333333     0
C3       C     0.75         0.736111     0.333333     0
C4       C     0.78125      0.694444     0.333333     0
C1       C     0.75         0.680556     0.666667     0
C2       C     0.78125      0.722222     0.666667     0
C3       C     0.75         0.736111     0.666667     0
C4       C     0.78125      0.694444     0.666667     0
C1       C     0.75         0.763889     0            0
C2       C     0.78125      0.805556     0            0
C3       C     0.75         0.819444     0            0
C4       C     0.78125      0.777778     0            0
C1       C     0.75         0.763889     0.333333     0
C2       C     0.78125      0.805556     0.333333     0
C3       C     0.75         0.819444     0.333333     0
C4       C     0.78125      0.777778     0.333333     0
C1       C     0.75         0.763889     0.666667     0
C2       C     0.78125      0.805556     0.666667     0
C3       C     0.75         0.819444     0.666667     0
C4       C     0.78125      0.777778     0.666667     0
C1       C     0.75         0.847222     0            0
C2       C     0.78125      0.888889     0            0
C3       C     0.75         0.902778     0            0
C4       C     0.78125      0.861111     0            0
C1       C     0.75         0.847222     0.333333     0
C2       C     0.78125      0.888889     0.333333     0
C3       C     0.75         0.902778     0.333333     0
C4       C     0.78125      0.861111     0.333333     0
C1       C     0.75         0.847222     0.666667     0
C2       C     0.78125      0.888889     0.666667     0
C3       C     0.75         0.902778     0.666667     0
C4       C     0.78125      0.861111     0.666667     0
C1       C     0.75         0.930556     0            0
C2       C     0.78125      0.972222     0            0
C3       C     0.75         0.986111     0            0
C4       C     0.78125      0.944444     0            0
C1       C     0.75         0.930556     0.333333     0
C2       C     0.78125      0.972222     0.333333     0
C3       C     0.75         0.986111     0.333333     0
C4       C     0.78125      0.944444     0.333333     0
C1       C     0.75         0.930556     0.666667     0
C2       C     0.78125      0.972222     0.666667     0
C3       C     0.75         0.986111     0.666667     0
C4       C     0.78125      0.944444     0.666667     0
C1       C     0.8125       0.0138892    0            0
C2       C     0.84375      0.0555558    0            0
C3       C     0.8125       0.0694442    0            0
C4       C     0.84375      0.0277775    0            0
C1       C     0.8125       0.0138892    0.333333     0
C2       C     0.84375      0.0555558    0.333333     0
C3       C     0.8125       0.0694442    0.333333     0
C4       C     0.84375      0.0277775    0.333333     0
C1       C     0.8125       0.0138892    0.666667     0
C2       C     0.84375      0.0555558    0.666667     0
C3       C     0.8125       0.0694442    0.666667     0
C4       C     0.84375      0.0277775    0.666667     0
C1       C     0.8125       0.0972225    0            0
C2       C     0.84375      0.138889     0            0
C3       C     0.8125       0.152778     0            0
C4       C     0.84375      0.111111     0            0
C1       C     0.8125       0.0972225    0.333333     0
C2       C     0.84375      0.138889     0.333333     0
C3       C     0.8125       0.152777     0.333333     0
C4       C     0.84375      0.111111     0.333333     0
C1       C     0.8125       0.0972225    0.666667     0
C2       C     0.84375      0.138889     0.666667     0
C3       C     0.8125       0.152778     0.666667     0
C4       C     0.84375      0.111111     0.666667     0
C1       C     0.8125       0.180556     0            0
C2       C     0.84375      0.222222     0            0
C3       C     0.8125       0.236111     0            0
C4       C     0.84375      0.194444     0            0
C1       C     0.8125       0.180556     0.333333     0
C2       C     0.84375      0.222222     0.333333     0
C3       C     0.8125       0.236111     0.333333     0
C4       C     0.84375      0.194444     0.333333     0
C1       C     0.8125       0.180556     0.666667     0
C2       C     0.84375      0.222222     0.666667     0
C3       C     0.8125       0.236111     0.666667     0
C4       C     0.84375      0.194444     0.666667     0
C1       C     0.8125       0.263889     0            0
C2       C     0.84375      0.305556     0            0
C3       C     0.8125       0.319444     0            0
C4       C     0.84375      0.277778     0            0
C1       C     0.8125       0.263889     0.333333     0
C2       C     0.84375      0.305556     0.333333     0
C3       C     0.8125       0.319444     0.333333     0
C4       C     0.84375      0.277778     0.333333     0
C1       C     0.8125       0.263889     0.666667     0
C2       C     0.84375      0.305556     0.666667     0
C3       C     0.8125       0.319444     0.666667     0
C4       C     0.84375      0.277778     0.666667     0
C1       C     0.8125       0.347222     0            0
C2       C     0.84375      0.388889     0            0
C3       C     0.8125       0.402778     0            0
C4       C     0.84375      0.361111     0            0
C1       C     0.8125       0.347222     0.333333     0
C2       C     0.84375      0.388889     0.333333     0
C3       C     0.8125       0.402778     0.333333     0
C4       C     0.84375      0.361111     0.333333     0
C1       C     0.8125       0.347222     0.666667     0
C2       C     0.84375      0.388889     0.666667     0
C3       C     0.8125       0.402778     0.666667     0
C4       C     0.84375      0.361111     0.666667     0
C1       C     0.8125       0.430556     0            0
C2       C     0.84375      0.472223     0            0
C3       C     0.8125       0.486111     0            0
C4       C     0.84375      0.444444     0            0
C1       C     0.8125       0.430556     0.333333     0
C2       C     0.84375      0.472223     0.333333     0
C3       C     0.8125       0.486111     0.333333     0
C4       C     0.84375      0.444444     0.333333     0
C1       C     0.8125       0.430556     0.666667     0
C2       C     0.84375      0.472223     0.666667     0
C3       C     0.8125       0.486111     0.666667     0
C4       C     0.84375      0.444444     0.666667     0
C1       C     0.8125       0.513889     0            0
C2       C     0.84375      0.555556     0            0
C3       C     0.8125       0.569444     0            0
C4       C     0.84375      0.527778     0            0
C1       C     0.8125       0.513889     0.333333     0
C2       C     0.84375      0.555556     0.333333     0
C3       C     0.8125       0.569444     0.333333     0
C4       C     0.84375      0.527778     0.333333     0
C1       C     0.8125       0.513889     0.666667     0
C2       C     0.84375      0.555556     0.666667     0
C3       C     0.8125       0.569444     0.666667     0
C4       C     0.84375      0.527778     0.666667     0
C1       C     0.8125       0.597222     0            0
C2       C     0.84375      0.638889     0            0
C3       C     0.8125       0.652778     0            0
C4       C     0.84375      0.611111     0            0
C1       C     0.8125       0.597222     0.333333     0
C2       C     0.84375      0.638889     0.333333     0
C3       C     0.8125       0.652778     0.333333     0
C4       C     0.84375      0.611111     0.333333     0
C1       C     0.8125       0.597222     0.666667     0
C2       C     0.84375      0.638889     0.666667     0
C3       C     0.8125       0.652778     0.666667     0
C4       C     0.84375      0.611111     0.666667     0
C1       C     0.8125       0.680556     0            0
C2       C     0.84375      0.722222     0            0
C3       C     0.8125       0.736111     0            0
C4       C     0.84375      0.694444     0            0
C1       C     0.8125       0.680556     0.333333     0
C2       C     0.84375      0.722222     0.333333     0
C3       C     0.8125       0.736111     0.333333     0
C4       C     0.84375      0.694444     0.333333     0
C1       C     0.8125       0.680556     0.666667     0
C2       C     0.84375      0.722222     0.666667     0
C3       C     0.8125       0.736111     0.666667     0
C4       C     0.84375      0.694444     0.666667     0
C1       C     0.8125       0.763889     0            0
C2       C     0.84375      0.805556     0            0
C3       C     0.8125       0.819444     0            0
C4       C     0.84375      0.777778     0            0
C1       C     0.8125       0.763889     0.333333     0
C2       C     0.84375      0.805556     0.333333     0
C3       C     0.8125       0.819444     0.333333     0
C4       C     0.84375      0.777778     0.333333     0
C1       C     0.8125       0.763889     0.666667     0
C2       C     0.84375      0.805556     0.666667     0
C3       C     0.8125       0.819444     0.666667     0
C4       C     0.84375      0.777778     0.666667     0
C1       C     0.8125       0.847222     0            0
C2       C     0.84375      0.888889     0            0
C3       C     0.8125       0.902778     0            0
C4       C     0.84375      0.861111     0            0
C1       C     0.8125       0.847222     0.333333     0
C2       C     0.84375      0.888889     0.333333     0
C3       C     0.8125       0.902778     0.333333     0
C4       C     0.84375      0.861111     0.333333     0
C1       C     0.8125       0.847222     0.666667     0
C2       C     0.84375      0.888889     0.666667     0
C3       C     0.8125       0.902778     0.666667     0
C4       C     0.84375      0.861111     0.666667     0
C1       C     0.8125       0.930556     0            0
C2       C     0.84375      0.972222     0            0
C3       C     0.8125       0.986111     0            0
C4       C     0.84375      0.944444     0            0
C1       C     0.8125       0.930556     0.333333     0
C2       C     0.84375      0.972222     0.333333     0
C3       C     0.8125       0.986111     0.333333     0
C4       C     0.84375      0.944444     0.333333     0
C1       C     0.8125       0.930556     0.666667     0
C2       C     0.84375      0.972222     0.666667     0
C3       C     0.8125       0.986111     0.666667     0
C4       C     0.84375      0.944444     0.666667     0
C1       C     0.875        0.0138892    0            0
C2       C     0.90625      0.0555558    0            0
C3       C     0.875        0.0694442    0            0
C4       C     0.90625      0.0277775    0            0
C1       C     0.875        0.0138892    0.333333     0
C2       C     0.90625      0.0555558    0.333333     0
C3       C     0.875        0.0694442    0.333333     0
C4       C     0.90625      0.0277775    0.333333     0
C1       C     0.875        0.0138892    0.666667     0
C2       C     0.90625      0.0555558    0.666667     0
C3       C     0.875        0.0694442    0.666667     0
C4       C     0.90625      0.0277775    0.666667     0
C1       C     0.875        0.0972225    0            0
C2       C     0.90625      0.138889     0            0
C3       C     0.875        0.152778     0            0
C4       C     0.90625      0.111111     0            0
C1       C     0.875        0.0972225    0.333333     0
C2       C     0.90625      0.138889     0.333333     0
C3       C     0.875        0.152777     0.333333     0
C4       C     0.90625      0.111111     0.333333     0
C1       C     0.875        0.0972225    0.666667     0
C2       C     0.90625      0.138889     0.666667     0
C3       C     0.875        0.152778     0.666667     0
C4       C     0.90625      0.111111     0.666667     0
C1       C     0.875        0.180556     0            0
C2       C     0.90625      0.222222     0            0
C3       C     0.875        0.236111     0            0
C4       C     0.90625      0.194444     0            0
C1       C     0.875        0.180556     0.333333     0
C2       C     0.90625      0.222222     0.333333     0
C3       C     0.875        0.236111     0.333333     0
C4       C     0.90625      0.194444     0.333333     0
C1       C     0.875        0.180556     0.666667     0
C2       C     0.90625      0.222222     0.666667     0
C3       C     0.875        0.236111     0.666667     0
C4       C     0.90625      0.194444     0.666667     0
C1       C     0.875        0.263889     0            0
C2       C     0.90625      0.305556     0            0
C3       C     0.875        0.319444     0            0
C4       C     0.90625      0.277778     0            0
C1       C     0.875        0.263889     0.333333     0
C2       C     0.90625      0.305556     0.333333     0
C3       C     0.875        0.319444     0.333333     0
C4       C     0.90625      0.277778     0.333333     0
C1       C     0.875        0.263889     0.666667     0
C2       C     0.90625      0.305556     0.666667     0
C3       C     0.875        0.319444     0.666667     0
C4       C     0.90625      0.277778     0.666667     0
C1       C     0.875        0.347222     0            0
C2       C     0.90625      0.388889     0            0
C3       C     0.875        0.402778     0            0
C4       C     0.90625      0.361111     0            0
C1       C     0.875        0.347222     0.333333     0
C2       C     0.90625      0.388889     0.333333     0
C3       C     0.875        0.402778     0.333333     0
C4       C     0.90625      0.361111     0.333333     0
C1       C     0.875        0.347222     0.666667     0
C2       C     0.90625      0.388889     0.666667     0
C3       C     0.875        0.402778     0.666667     0
C4       C     0.90625      0.361111     0.666667     0
C1       C     0.875        0.430556     0            0
C2       C     0.90625      0.472223     0            0
C3       C     0.875        0.486111     0            0
C4       C     0.90625      0.444444     0            0
C1       C     0.875        0.430556     0.333333     0
C2       C     0.90625      0.472223     0.333333     0
C3       C     0.875        0.486111     0.333333     0
C4       C     0.90625      0.444444     0.333333     0
C1       C     0.875        0.430556     0.666667     0
C2       C     0.90625      0.472223     0.666667     0
C3       C     0.875        0.486111     0.666667     0
C4       C     0.90625      0.444444     0.666667     0
C1       C     0.875        0.513889     0            0
C2       C     0.90625      0.555556     0            0
C3       C     0.875        0.569444     0            0
C4       C     0.90625      0.527778     0            0
C1       C     0.875        0.513889     0.333333     0
C2       C     0.90625      0.555556     0.333333     0
C3       C     0.875        0.569444     0.333333     0
C4       C     0.90625      0.527778     0.333333     0
C1       C     0.875        0.513889     0.666667     0
C2       C     0.90625      0.555556     0.666667     0
C3       C     0.875        0.569444     0.666667     0
C4       C     0.90625      0.527778     0.666667     0
C1       C     0.875        0.597222     0            0
C2       C     0.90625      0.638889     0            0
C3       C     0.875        0.652778     0            0
C4       C     0.90625      0.611111     0            0
C1       C     0.875        0.597222     0.333333     0
C2       C     0.90625      0.638889     0.333333     0
C3       C     0.875        0.652778     0.333333     0
C4       C     0.90625      0.611111     0.333333     0
C1       C     0.875        0.597222     0.666667     0
C2       C     0.90625      0.638889     0.666667     0
C3       C     0.875        0.652778     0.666667     0
C4       C     0.90625      0.611111     0.666667     0
C1       C     0.875        0.680556     0            0
C2       C     0.90625      0.722222     0            0
C3       C     0.875        0.736111     0            0
C4       C     0.90625      0.694444     0            0
C1       C     0.875        0.680556     0.333333     0
C2       C     0.90625      0.722222     0.333333     0
C3       C     0.875        0.736111     0.333333     0
C4       C     0.90625      0.694444     0.333333     0
C1       C     0.875        0.680556     0.666667     0
C2       C     0.90625      0.722222     0.666667     0
C3       C     0.875        0.736111     0.666667     0
C4       C     0.90625      0.694444     0.666667     0
C1       C     0.875        0.763889     0            0
C2       C     0.90625      0.805556     0            0
C3       C     0.875        0.819444     0            0
C4       C     0.90625      0.777778     0            0
C1       C     0.875        0.763889     0.333333     0
C2       C     0.90625      0.805556     0.333333     0
C3       C     0.875        0.819444     0.333333     0
C4       C     0.90625      0.777778     0.333333     0
C1       C     0.875        0.763889     0.666667     0
C2       C     0.90625      0.805556     0.666667     0
C3       C     0.875        0.819444     0.666667     0
C4       C     0.90625      0.777778     0.666667     0
C1       C     0.875        0.847222     0            0
C2       C     0.90625      0.888889     0            0
C3       C     0.875        0.902778     0            0
C4       C     0.90625      0.861111     0            0
C1       C     0.875        0.847222     0.333333     0
C2       C     0.90625      0.888889     0.333333     0
C3       C     0.875        0.902778     0.333333     0
C4       C     0.90625      0.861111     0.333333     0
C1       C     0.875        0.847222     0.666667     0
C2       C     0.90625      0.888889     0.666667     0
C3       C     0.875        0.902778     0.666667     0
C4       C     0.90625      0.861111     0.666667     0
C1       C     0.875        0.930556     0            0
C2       C     0.90625      0.972222     0            0
C3       C     0.875        0.986111     0            0
C4       C     0.90625      0.944444     0            0
C1       C     0.875        0.930556     0.333333     0
C2       C     0.90625      0.972222     0.333333     0
C3       C     0.875        0.986111     0.333333     0
C4       C     0.90625      0.944444     0.333333     0
C1       C     0.875        0.930556     0.666667     0
C2       C     0.90625      0.972222     0.666667     0
C3       C     0.875        0.986111     0.666667     0
C4       C     0.90625      0.944444     0.666667     0
C1       C     0.9375       0.0138892    0            0
C2       C     0.96875      0.0555558    0            0
C3       C     0.9375       0.0694442    0            0
C4       C     0.96875      0.0277775    0            0
C1       C     0.9375       0.0138892    0.333333     0
C2       C     0.96875      0.0555558    0.333333     0
C3       C     0.9375       0.0694442    0.333333     0
C4       C     0.96875      0.0277775    0.333333     0
C1       C     0.9375       0.0138892    0.666667     0
C2       C     0.96875      0.0555558    0.666667     0
C3       C     0.9375       0.0694442    0.666667     0
C4       C     0.96875      0.0277775    0.666667     0
C1       C     0.9375       0.0972225    0            0
C2       C     0.96875      0.138889     0            0
C3       C     0.9375       0.152778     0            0
C4       C     0.96875      0.111111     0            0
C1       C     0.9375       0.0972225    0.333333     0
C2       C     0.96875      0.138889     0.333333     0
C3       C     0.9375       0.152777     0.333333     0
C4       C     0.96875      0.111111     0.333333     0
C1       C     0.9375       0.0972225    0.666667     0
C2       C     0.96875      0.138889     0.666667     0
C3       C     0.9375       0.152778     0.666667     0
C4       C     0.96875      0.111111     0.666667     0
C1       C     0.9375       0.180556     0            0
C2       C     0.96875      0.222222     0            0
C3       C     0.9375       0.236111     0            0
C4       C     0.96875      0.194444     0            0
C1       C     0.9375       0.180556     0.333333     0
C2       C     0.96875      0.222222     0.333333     0
C3       C     0.9375       0.236111     0.333333     0
C4       C     0.96875      0.194444     0.333333     0
C1       C     0.9375       0.180556     0.666667     0
C2       C     0.96875      0.222222     0.666667     0
C3       C     0.9375       0.236111     0.666667     0
C4       C     0.96875      0.194444     0.666667     0
C1       C     0.9375       0.263889     0            0
C2       C     0.96875      0.305556     0            0
C3       C     0.9375       0.319444     0            0
C4       C     0.96875      0.277778     0            0
C1       C     0.9375       0.263889     0.333333     0
C2       C     0.96875      0.305556     0.333333     0
C3       C     0.9375       0.319444     0.333333     0
C4       C     0.96875      0.277778     0.333333     0
C1       C     0.9375       0.263889     0.666667     0
C2       C     0.96875      0.305556     0.666667     0
C3       C     0.9375       0.319444     0.666667     0
C4       C     0.96875      0.277778     0.666667     0
C1       C     0.9375       0.347222     0            0
C2       C     0.96875      0.388889     0            0
C3       C     0.9375       0.402778     0            0
C4       C     0.96875      0.361111     0            0
C1       C     0.9375       0.347222     0.333333     0
C2       C     0.96875      0.388889     0.333333     0
C3       C     0.9375       0.402778     0.333333     0
C4       C     0.96875      0.361111     0.333333     0
C1       C     0.9375       0.347222     0.666667     0
C2       C     0.96875      0.388889     0.666667     0
C3       C     0.9375       0.402778     0.666667     0
C4       C     0.96875      0.361111     0.666667     0
C1       C     0.9375       0.430556     0            0
C2       C     0.96875      0.472223     0            0
C3       C     0.9375       0.486111     0            0
C4       C     0.96875      0.444444     0            0
C1       C     0.9375       0.430556     0.333333     0
C2       C     0.96875      0.472223     0.333333     0
C3       C     0.9375       0.486111     0.333333     0
C4       C     0.96875      0.444444     0.333333     0
C1       C     0.9375       0.430556     0.666667     0
C2       C     0.96875      0.472223     0.666667     0
C3       C     0.9375       0.486111     0.666667     0
C4       C     0.96875      0.444444     0.666667     0
C1       C     0.9375       0.513889     0            0
C2       C     0.96875      0.555556     0            0
C3       C     0.9375       0.569444     0            0
C4       C     0.96875      0.527778     0            0
C1       C     0.9375       0.513889     0.333333     0
C2       C     0.96875      0.555556     0.333333     0
C3       C     0.9375       0.569444     0.333333     0
C4       C     0.96875      0.527778     0.333333     0
C1       C     0.9375       0.513889     0.666667     0
C2       C     0.96875      0.555556     0.666667     0
C3       C     0.9375       0.569444     0.666667     0
C4       C     0.96875      0.527778     0.666667     0
C1       C     0.9375       0.597222     0            0
C2       C     0.96875      0.638889     0            0
C3       C     0.9375       0.652778     0            0
C4       C     0.96875      0.611111     0            0
C1       C     0.9375       0.597222     0.333333     0
C2       C     0.96875      0.638889     0.333333     0
C3       C     0.9375       0.652778     0.333333     0
C4       C     0.96875      0.611111     0.333333     0
C1       C     0.9375       0.597222     0.666667     0
C2       C     0.96875      0.638889     0.666667     0
C3       C     0.9375       0.652778     0.666667     0
C4       C     0.96875      0.611111     0.666667     0
C1       C     0.9375       0.680556     0            0
C2       C     0.96875      0.722222     0            0
C3       C     0.9375       0.736111     0            0
C4       C     0.96875      0.694444     0            0
C1       C     0.9375       0.680556     0.333333     0
C2       C     0.96875      0.722222     0.333333     0
C3       C     0.9375       0.736111     0.333333     0
C4       C     0.96875      0.694444     0.333333     0
C1       C     0.9375       0.680556     0.666667     0
C2       C     0.96875      0.722222     0.666667     0
C3       C     0.9375       0.736111     0.666667     0
C4       C     0.96875      0.694444     0.666667     0
C1       C     0.9375       0.763889     0            0
C2       C     0.96875      0.805556     0            0
C3       C     0.9375       0.819444     0            0
C4       C     0.96875      0.777778     0            0
C1       C     0.9375       0.763889     0.333333     0
C2       C     0.96875      0.805556     0.333333     0
C3       C     0.9375       0.819444     0.333333     0
C4       C     0.96875      0.777778     0.333333     0
C1       C     0.9375       0.763889     0.666667     0
C2       C     0.96875      0.805556     0.666667     0
C3       C     0.9375       0.819444     0.666667     0
C4       C     0.96875      0.777778     0.666667     0
C1       C     0.9375       0.847222     0            0
C2       C     0.96875      0.888889     0            0
C3       C     0.9375       0.902778     0            0
C4       C     0.96875      0.861111     0            0
C1       C     0.9375       0.847222     0.333333     0
C2       C     0.96875      0.888889     0.333333     0
C3       C     0.9375       0.902778     0.333333     0
C4       C     0.96875      0.861111     0.333333     0
C1       C     0.9375       0.847222     0.666667     0
C2       C     0.96875      0.888889     0.666667     0
C3       C     0.9375       0.902778     0.666667     0
C4       C     0.96875      0.861111     0.666667     0
C1       C     0.9375       0.930556     0            0
C2       C     0.96875      0.972222     0            0
C3       C     0.9375       0.986111     0            0
C4       C     0.96875      0.944444     0            0
C1       C     0.9375       0.930556     0.333333     0
C2       C     0.96875      0.972222     0.333333     0
C3       C     0.9375       0.986111     0.333333     0
C4       C     0.96875      0.944444     0.333333     0
C1       C     0.9375       0.930556     0.666667     0
C2       C     0.96875      0.972222     0.666667     0
C3       C     0.9375       0.986111     0.666667     0
C4       C     0.96875      0.944444     0.666667     0
C1       C     0            0            0.0138892    0
C2       C     0.03125      0            0.0555558    0
C3       C     0            0            0.0694442    0
C4       C     0.03125      0            0.0277775    0
C1       C     0            0            0.0972225    0
C2       C     0.03125      0            0.138889     0
C3       C     0            0            0.152778     0
C4       C     0.03125      0            0.111111     0
C1       C     0            0            0.180556     0
C2       C     0.03125      0            0.222222     0
C3       C     0            0            0.236111     0
C4       C     0.03125      0            0.194444     0
C1       C     0            0            0.263889     0
C2       C     0.03125      0            0.305556     0
C3       C     0            0            0.319444     0
C4       C     0.03125      0            0.277778     0
C1       C     0            0            0.347222     0
C2       C     0.03125      0            0.388889     0
C3       C     0            0            0.402778     0
C4       C     0.03125      0            0.361111     0
C1       C     0            0            0.430556     0
C2       C     0.03125      0            0.472223     0
C3       C     0            0            0.486111     0
C4       C     0.03125      0            0.444444     0
C1       C     0            0            0.513889     0
C2       C     0.03125      0            0.555556     0
C3       C     0            0            0.569444     0
C4       C     0.03125      0            0.527778     0
C1       C     0            0            0.597222     0
C2       C     0.03125      0            0.638889     0
C3       C     0            0            0.652778     0
C4       C     0.03125      0            0.611111     0
C1       C     0            0            0.680556     0
C2       C     0.03125      0            0.722222     0
C3       C     0            0            0.736111     0
C4       C     0.03125      0            0.694444     0
C1       C     0            0            0.763889     0
C2       C     0.03125      0            0.805556     0
C3       C     0            0            0.819444     0
C4       C     0.03125      0            0.777778     0
C1       C     0            0            0.847222     0
C2       C     0.03125      0            0.888889     0
C3       C     0            0            0.902778     0
C4       C     0.03125      0            0.861111     0
C1       C     0            0            0.930556     0
C2       C     0.03125      0            0.972222     0
C3       C     0            0            0.986111     0
C4       C     0.03125      0            0.944444     0
C1       C     0            0.333333     0.0138892    0
C2       C     0.03125      0.333333     0.0555558    0
C3       C     0            0.333333     0.0694442    0
C4       C     0.03125      0.333333     0.0277775    0
C1       C     0            0.333333     0.0972225    0
C2       C     0.03125      0.333333     0.138889     0
C3       C     0            0.333333     0.152778     0
C4       C     0.03125      0.333333     0.111111     0
C1       C     0            0.333333     0.180556     0
C2       C     0.03125      0.333333     0.222222     0
C3       C     0            0.333333     0.236111     0
C4       C     0.03125      0.333333     0.194444     0
C1       C     0            0.333333     0.263889     0
C2       C     0.03125      0.333333     0.305556     0
C3       C     0            0.333333     0.319444     0
C4       C     0.03125      0.333333     0.277778     0
C1       C     0            0.333333     0.347222     0
C2       C     0.03125      0.333333     0.388889     0
C3       C     0            0.333333     0.402778     0
C4       C     0.03125      0.333333     0.361111     0
C1       C     0            0.333333     0.430556     0
C2       C     0.03125      0.333333     0.472223     0
C3       C     0            0.333333     0.486111     0
C4       C     0.03125      0.333333     0.444444     0
C1       C     0            0.333333     0.513889     0
C2       C     0.03125      0.333333     0.555556     0
C3       C     0            0.333333     0.569444     0
C4       C     0.03125      0.333333     0.527778     0
C1       C     0            0.333333     0.597222     0
C2       C     0.03125      0.333333     0.638889     0
C3       C     0            0.333333     0.652778     0
C4       C     0.03125      0.333333     0.611111     0
C1       C     0            0.333333     0.680556     0
C2       C     0.03125      0.333333     0.722222     0
C3       C     0            0.333333     0.736111     0
C4       C     0.03125      0.333333     0.694444     0
C1       C     0            0.333333     0.763889     0
C2       C     0.03125      0.333333     0.805556     0
C3       C     0            0.333333     0.819444     0
C4       C     0.03125      0.333333     0.777778     0
C1       C     0            0.333333     0.847222     0
C2       C     0.03125      0.333333     0.888889     0
C3       C     0            0.333333     0.902778     0
C4       C     0.03125      0.333333     0.861111     0
C1       C     0            0.333333     0.930556     0
C2       C     0.03125      0.333333     0.972222     0
C3       C     0            0.333333     0.986111     0
C4       C     0.03125      0.333333     0.944444     0
C1       C     0            0.666667     0.0138892    0
C2       C     0.03125      0.666667     0.0555558    0
C3       C     0            0.666667     0.0694442    0
C4       C     0.03125      0.666667     0.0277775    0
C1       C     0            0.666667     0.0972225    0
C2       C     0.03125      0.666667     0.138889     0
C3       C     0            0.666667     0.152778     0
C4       C     0.03125      0.666667     0.111111     0
C1       C     0            0.666667     0.180556     0
C2       C     0.03125      0.666667     0.222222     0
C3       C     0            0.666667     0.236111     0
C4       C     0.03125      0.666667     0.194444     0
C1       C     0            0.666667     0.263889     0
C2       C     0.03125      0.666667     0.305556     0
C3       C     0            0.666667     0.319444     0
C4       C     0.03125      0.666667     0.277778     0
C1       C     0            0.666667     0.347222     0
C2       C     0.03125      0.666667     0.388889     0
C3       C     0            0.666667     0.402778     0
C4       C     0.03125      0.666667     0.361111     0
C1       C     0            0.666667     0.430556     0
C2       C     0.03125      0.666667     0.472223     0
C3       C     0            0.666667     0.486111     0
C4       C     0.03125      0.666667     0.444444     0
C1       C     0            0.666667     0.513889     0
C2       C     0.03125      0.666667     0.555556     0
C3       C     0            0.666667     0.569444     0
C4       C     0.03125      0.666667     0.527778     0
C1       C     0            0.666667     0.597222     0
C2       C     0.03125      0.666667     0.638889     0
C3       C     0            0.666667     0.652778     0
C4       C     0.03125      0.666667     0.611111     0
C1       C     0            0.666667     0.680556     0
C2       C     0.03125      0.666667     0.722222     0
C3       C     0            0.666667     0.736111     0
C4       C     0.03125      0.666667     0.694444     0
C1       C     0            0.666667     0.763889     0
C2       C     0.03125      0.666667     0.805556     0
C3       C     0            0.666667     0.819444     0
C4       C     0.03125      0.666667     0.777778     0
C1       C     0            0.666667     0.847222     0
C2       C     0.03125      0.666667     0.888889     0
C3       C     0            0.666667     0.902778     0
C4       C     0.03125      0.666667     0.861111     0
C1       C     0            0.666667     0.930556     0
C2       C     0.03125      0.666667     0.972222     0
C3       C     0            0.666667     0.986111     0
C4       C     0.03125      0.666667     0.944444     0
C1       C     0.0625       0            0.0138892    0
C2       C     0.09375      0            0.0555558    0
C3       C     0.0625       0            0.0694442    0
C4       C     0.09375      0            0.0277775    0
C1       C     0.0625       0            0.0972225    0
C2       C     0.09375      0            0.138889     0
C3       C     0.0625       0            0.152778     0
C4       C     0.09375      0            0.111111     0
C1       C     0.0625       0            0.180556     0
C2       C     0.09375      0            0.222222     0
C3       C     0.0625       0            0.236111     0
C4       C     0.09375      0            0.194444     0
C1       C     0.0625       0            0.263889     0
C2       C     0.09375      0            0.305556     0
C3       C     0.0625       0            0.319444     0
C4       C     0.09375      0            0.277778     0
C1       C     0.0625       0            0.347222     0
C2       C     0.09375      0            0.388889     0
C3       C     0.0625       0            0.402778     0
C4       C     0.09375      0            0.361111     0
C1       C     0.0625       0            0.430556     0
C2       C     0.09375      0            0.472223     0
C3       C     0.0625       0            0.486111     0
C4       C     0.09375      0            0.444444     0
C1       C     0.0625       0            0.513889     0
C2       C     0.09375      0            0.555556     0
C3       C     0.0625       0            0.569444     0
C4       C     0.09375      0            0.527778     0
C1       C     0.0625       0            0.597222     0
C2       C     0.09375      0            0.638889     0
C3       C     0.0625       0            0.652778     0
C4       C     0.09375      0            0.611111     0
C1       C     0.0625       0            0.680556     0
C2       C     0.09375      0            0.722222     0
C3       C     0.0625       0            0.736111     0
C4       C     0.09375      0            0.694444     0
C1       C     0.0625       0            0.763889     0
C2       C     0.09375      0            0.805556     0
C3       C     0.0625       0            0.819444     0
C4       C     0.09375      0            0.777778     0
C1       C     0.0625       0            0.847222     0
C2       C     0.09375      0            0.888889     0
C3       C     0.0625       0            0.902778     0
C4       C     0.09375      0            0.861111     0
C1       C     0.0625       0            0.930556     0
C2       C     0.09375      0            0.972222     0
C3       C     0.0625       0            0.986111     0
C4       C     0.09375      0            0.944444     0
C1       C     0.0625       0.333333     0.0138892    0
C2       C     0.09375      0.333333     0.0555558    0
C3       C     0.0625       0.333333     0.0694442    0
C4       C     0.09375      0.333333     0.0277775    0
C1       C     0.0625       0.333333     0.0972225    0
C2       C     0.09375      0.333333     0.138889     0
C3       C     0.0625       0.333333     0.152778     0
C4       C     0.09375      0.333333     0.111111     0
C1       C     0.0625       0.333333     0.180556     0
C2       C     0.09375      0.333333     0.222222     0
C3       C     0.0625       0.333333     0.236111     0
C4       C     0.09375      0.333333     0.194444     0
C1       C     0.0625       0.333333     0.263889     0
C2       C     0.09375      0.333333     0.305556     0
C3       C     0.0625       0.333333     0.319444     0
C4       C     0.09375      0.333333     0.277778     0
C1       C     0.0625       0.333333     0.347222     0
C2       C     0.09375      0.333333     0.388889     0
C3       C     0.0625       0.333333     0.402778     0
C4       C     0.09375      0.333333     0.361111     0
C1       C     0.0625       0.333333     0.430556     0
C2       C     0.09375      0.333333     0.472223     0
C3       C     0.0625       0.333333     0.486111     0
C4       C     0.09375      0.333333     0.444444     0
C1       C     0.0625       0.333333     0.513889     0
C2       C     0.09375      0.333333     0.555556     0
C3       C     0.0625       0.333333     0.569444     0
C4       C     0.09375      0.333333     0.527778     0
C1       C     0.0625       0.333333     0.597222     0
C2       C     0.09375      0.333333     0.638889     0
C3       C     0.0625       0.333333     0.652778     0
C4       C     0.09375      0.333333     0.611111     0
C1       C     0.0625       0.333333     0.680556     0
C2       C     0.09375      0.333333     0.722222     0
C3       C     0.0625       0.333333     0.736111     0
C4       C     0.09375      0.333333     0.694444     0
C1       C     0.0625       0.333333     0.763889     0
C2       C     0.09375      0.333333     0.805556     0
C3       C     0.0625       0.333333     0.819444     0
C4       C     0.09375      0.333333     0.777778     0
C1       C     0.0625       0.333333     0.847222     0
C2       C     0.09375      0.333333     0.888889     0
C3       C     0.0625       0.333333     0.902778     0
C4       C     0.09375      0.333333     0.861111     0
C1       C     0.0625       0.333333     0.930556     0
C2       C     0.09375      0.333333     0.972222     0
C3       C     0.0625       0.333333     0.986111     0
C4       C     0.09375      0.333333     0.944444     0
C1       C     0.0625       0.666667     0.0138892    0
C2       C     0.09375      0.666667     0.0555558    0
C3       C     0.0625       0.666667     0.0694442    0
C4       C     0.09375      0.666667     0.0277775    0
C1       C     0.0625       0.666667     0.0972225    0
C2       C     0.09375      0.666667     0.138889     0
C3       C     0.0625       0.666667     0.152778     0
C4       C     0.09375      0.666667     0.111111     0
C1       C     0.0625       0.666667     0.180556     0
C2       C     0.09375      0.666667     0.222222     0
C3       C     0.0625       0.666667     0.236111     0
C4       C     0.09375      0.666667     0.194444     0
C1       C     0.0625       0.666667     0.263889     0
C2       C     0.09375      0.666667     0.305556     0
C3       C     0.0625       0.666667     0.319444     0
C4       C     0.09375      0.666667     0.277778     0
C1       C     0.0625       0.666667     0.347222     0
C2       C     0.09375      0.666667     0.388889     0
C3       C     0.0625       0.666667     0.402778     0
C4       C     0.09375      0.666667     0.361111     0
C1       C     0.0625       0.666667     0.430556     0
C2       C     0.09375      0.666667     0.472223     0
C3       C     0.0625       0.666667     0.486111     0
C4       C     0.09375      0.666667     0.444444     0
C1       C     0.0625       0.666667     0.513889     0
C2       C     0.09375      0.666667     0.555556     0
C3       C     0.0625       0.666667     0.569444     0
C4       C     0.09375      0.666667     0.527778     0
C1       C     0.0625       0.666667     0.597222     0
C2       C     0.09375      0.666667     0.638889     0
C3       C     0.0625       0.666667     0.652778     0
C4       C     0.09375      0.666667     0.611111     0
C1       C     0.0625       0.666667     0.680556     0
C2       C     0.09375      0.666667     0.722222     0
C3       C     0.0625       0.666667     0.736111     0
C4       C     0.09375      0.666667     0.694444     0
C1       C     0.0625       0.666667     0.763889     0
C2       C     0.09375      0.666667     0.805556     0
C3       C     0.0625       0.666667     0.819444     0
C4       C     0.09375      0.666667     0.777778     0
C1       C     0.0625       0.666667     0.847222     0
C2       C     0.09375      0.666667     0.888889     0
C3       C     0.0625       0.666667     0.902778     0
C4       C     0.09375      0.666667     0.861111     0
C1       C     0.0625       0.666667     0.930556     0
C2       C     0.09375      0.666667     0.972222     0
C3       C     0.0625       0.666667     0.986111     0
C4       C     0.09375      0.666667     0.944444     0
C1       C     0.125        0            0.0138892    0
C2       C     0.15625      0            0.0555558    0
C3       C     0.125        0            0.0694442    0
C4       C     0.15625      0            0.0277775    0
C1       C     0.125        0            0.0972225    0
C2       C     0.15625      0            0.138889     0
C3       C     0.125        0            0.152778     0
C4       C     0.15625      0            0.111111     0
C1       C     0.125        0            0.180556     0
C2       C     0.15625      0            0.222222     0
C3       C     0.125        0            0.236111     0
C4       C     0.15625      0            0.194444     0
C1       C     0.125        0            0.263889     0
C2       C     0.15625      0            0.305556     0
C3       C     0.125        0            0.319444     0
C4       C     0.15625      0            0.277778     0
C1       C     0.125        0            0.347222     0
C2       C     0.15625      0            0.388889     0
C3       C     0.125        0            0.402778     0
C4       C     0.15625      0            0.361111     0
C1       C     0.125        0            0.430556     0
C2       C     0.15625      0            0.472223     0
C3       C     0.125        0            0.486111     0
C4       C     0.15625      0            0.444444     0
C1       C     0.125        0            0.513889     0
C2       C     0.15625      0            0.555556     0
C3       C     0.125        0            0.569444     0
C4       C     0.15625      0            0.527778     0
C1       C     0.125        0            0.597222     0
C2       C     0.15625      0            0.638889     0
C3       C     0.125        0            0.652778     0
C4       C     0.15625      0            0.611111     0
C1       C     0.125        0            0.680556     0
C2       C     0.15625      0            0.722222     0
C3       C     0.125        0            0.736111     0
C4       C     0.15625      0            0.694444     0
C1       C     0.125        0            0.763889     0
C2       C     0.15625      0            0.805556     0
C3       C     0.125        0            0.819444     0
C4       C     0.15625      0            0.777778     0
C1       C     0.125        0            0.847222     0
C2       C     0.15625      0            0.888889     0
C3       C     0.125        0            0.902778     0
C4       C     0.15625      0            0.861111     0
C1       C     0.125        0            0.930556     0
C2       C     0.15625      0            0.972222     0
C3       C     0.125        0            0.986111     0
C4       C     0.15625      0            0.944444     0
C1       C     0.125        0.333333     0.0138892    0
C2       C     0.15625      0.333333     0.0555558    0
C3       C     0.125        0.333333     0.0694442    0
C4       C     0.15625      0.333333     0.0277775    0
C1       C     0.125        0.333333     0.0972225    0
C2       C     0.15625      0.333333     0.138889     0
C3       C     0.125        0.333333     0.152778     0
C4       C     0.15625      0.333333     0.111111     0
C1       C     0.125        0.333333     0.180556     0
C2       C     0.15625      0.333333     0.222222     0
C3       C     0.125        0.333333     0.236111     0
C4       C     0.15625      0.333333     0.194444     0
C1       C     0.125        0.333333     0.263889     0
C2       C     0.15625      0.333333     0.305556     0
C3       C     0.125        0.333333     0.319444     0
C4       C     0.15625      0.333333     0.277778     0
C1       C     0.125        0.333333     0.347222     0
C2       C     0.15625      0.333333     0.388889     0
C3       C     0.125        0.333333     0.402778     0
C4       C     0.15625      0.333333     0.361111     0
C1       C     0.125        0.333333     0.430556     0
C2       C     0.15625      0.333333     0.472223     0
C3       C     0.125        0.333333     0.486111     0
C4       C     0.15625      0.333333     0.444444     0
C1       C     0.125        0.333333     0.513889     0
C2       C     0.15625      0.333333     0.555556     0
C3       C     0.125        0.333333     0.569444     0
C4       C     0.15625      0.333333     0.527778     0
C1       C     0.125        0.333333     0.597222     0
C2       C     0.15625      0.333333     0.638889     0
C3       C     0.125        0.333333     0.652778     0
C4       C     0.15625      0.333333     0.611111     0
C1       C     0.125        0.333333     0.680556     0
C2       C     0.15625      0.333333     0.722222     0
C3       C     0.125        0.333333     0.736111     0
C4       C     0.15625      0.333333     0.694444     0
C1       C     0.125        0.333333     0.763889     0
C2       C     0.15625      0.333333     0.805556     0
C3       C     0.125        0.333333     0.819444     0
C4       C     0.15625      0.333333     0.777778     0
C1       C     0.125        0.333333     0.847222     0
C2       C     0.15625      0.333333     0.888889     0
C3       C     0.125        0.333333     0.902778     0
C4       C     0.15625      0.333333     0.861111     0
C1       C     0.125        0.333333     0.930556     0
C2       C     0.15625      0.333333     0.972222     0
C3       C     0.125        0.333333     0.986111     0
C4       C     0.15625      0.333333     0.944444     0
C1       C     0.125        0.666667     0.0138892    0
C2       C     0.15625      0.666667     0.0555558    0
C3       C     0.125        0.666667     0.0694442    0
C4       C     0.15625      0.666667     0.0277775    0
C1       C     0.125        0.666667     0.0972225    0
C2       C     0.15625      0.666667     0.138889     0
C3       C     0.125        0.666667     0.152778     0
C4       C     0.15625      0.666667     0.111111     0
C1       C     0.125        0.666667     0.180556     0
C2       C     0.15625      0.666667     0.222222     0
C3       C     0.125        0.666667     0.236111     0
C4       C     0.15625      0.666667     0.194444     0
C1       C     0.125        0.666667     0.263889     0
C2       C     0.15625      0.666667     0.305556     0
C3       C     0.125        0.666667     0.319444     0
C4       C     0.15625      0.666667     0.277778     0
C1       C     0.125        0.666667     0.347222     0
C2       C     0.15625      0.666667     0.388889     0
C3       C     0.125        0.666667     0.402778     0
C4       C     0.15625      0.666667     0.361111     0
C1       C     0.125        0.666667     0.430556     0
C2       C     0.15625      0.666667     0.472223     0
C3       C     0.125        0.666667     0.486111     0
C4       C     0.15625      0.666667     0.444444     0
C1       C     0.125        0.666667     0.513889     0
C2       C     0.15625      0.666667     0.555556     0
C3       C     0.125        0.666667     0.569444     0
C4       C     0.15625      0.666667     0.527778     0
C1       C     0.125        0.666667     0.597222     0
C2       C     0.15625      0.666667     0.638889     0
C3       C     0.125        0.666667     0.652778     0
C4       C     0.15625      0.666667     0.611111     0
C1       C     0.125        0.666667     0.680556     0
C2       C     0.15625      0.666667     0.722222     0
C3       C     0.125        0.666667     0.736111     0
C4       C     0.15625      0.666667     0.694444     0
C1       C     0.125        0.666667     0.763889     0
C2       C     0.15625      0.666667     0.805556     0
C3       C     0.125        0.666667     0.819444     0
C4       C     0.15625      0.666667     0.777778     0
C1       C     0.125        0.666667     0.847222     0
C2       C     0.15625      0.666667     0.888889     0
C3       C     0.125        0.666667     0.902778     0
C4       C     0.15625      0.666667     0.861111     0
C1       C     0.125        0.666667     0.930556     0
C2       C     0.15625      0.666667     0.972222     0
C3       C     0.125        0.666667     0.986111     0
C4       C     0.15625      0.666667     0.944444     0
C1       C     0.1875       0            0.0138892    0
C2       C     0.21875      0            0.0555558    0
C3       C     0.1875       0            0.0694442    0
C4       C     0.21875      0            0.0277775    0
C1       C     0.1875       0            0.0972225    0
C2       C     0.21875      0            0.138889     0
C3       C     0.1875       0            0.152778     0
C4       C     0.21875      0            0.111111     0
C1       C     0.1875       0            0.180556     0
C2       C     0.21875      0            0.222222     0
C3       C     0.1875       0            0.236111     0
C4       C     0.21875      0            0.194444     0
C1       C     0.1875       0            0.263889     0
C2       C     0.21875      0            0.305556     0
C3       C     0.1875       0            0.319444     0
C4       C     0.21875      0            0.277778     0
C1       C     0.1875       0            0.347222     0
C2       C     0.21875      0            0.388889     0
C3       C     0.1875       0            0.402778     0
C4       C     0.21875      0            0.361111     0
C1       C     0.1875       0            0.430556     0
C2       C     0.21875      0            0.472223     0
C3       C     0.1875       0            0.486111     0
C4       C     0.21875      0            0.444444     0
C1       C     0.1875       0            0.513889     0
C2       C     0.21875      0            0.555556     0
C3       C     0.1875       0            0.569444     0
C4       C     0.21875      0            0.527778     0
C1       C     0.1875       0            0.597222     0
C2       C     0.21875      0            0.638889     0
C3       C     0.1875       0            0.652778     0
C4       C     0.21875      0            0.611111     0
C1       C     0.1875       0            0.680556     0
C2       C     0.21875      0            0.722222     0
C3       C     0.1875       0            0.736111     0
C4       C     0.21875      0            0.694444     0
C1       C     0.1875       0            0.763889     0
C2       C     0.21875      0            0.805556     0
C3       C     0.1875       0            0.819444     0
C4       C     0.21875      0            0.777778     0
C1       C     0.1875       0            0.847222     0
C2       C     0.21875      0            0.888889     0
C3       C     0.1875       0            0.902778     0
C4       C     0.21875      0            0.861111     0
C1       C     0.1875       0            0.930556     0
C2       C     0.21875      0            0.972222     0
C3       C     0.1875       0            0.986111     0
C4       C     0.21875      0            0.944444     0
C1       C     0.1875       0.333333     0.0138892    0
C2       C     0.21875      0.333333     0.0555558    0
C3       C     0.1875       0.333333     0.0694442    0
C4       C     0.21875      0.333333     0.0277775    0
C1       C     0.1875       0.333333     0.0972225    0
C2       C     0.21875      0.333333     0.138889     0
C3       C     0.1875       0.333333     0.152778     0
C4       C     0.21875      0.333333     0.111111     0
C1       C     0.1875       0.333333     0.180556     0
C2       C     0.21875      0.333333     0.222222     0
C3       C     0.1875       0.333333     0.236111     0
C4       C     0.21875      0.333333     0.194444     0
C1       C     0.1875       0.333333     0.263889     0
C2       C     0.21875      0.333333     0.305556     0
C3       C     0.1875       0.333333     0.319444     0
C4       C     0.21875      0.333333     0.277778     0
C1       C     0.1875       0.333333     0.347222     0
C2       C     0.21875      0.333333     0.388889     0
C3       C     0.1875       0.333333     0.402778     0
C4       C     0.21875      0.333333     0.361111     0
C1       C     0.1875       0.333333     0.430556     0
C2       C     0.21875      0.333333     0.472223     0
C3       C     0.1875       0.333333     0.486111     0
C4       C     0.21875      0.333333     0.444444     0
C1       C     0.1875       0.333333     0.513889     0
C2       C     0.21875      0.333333     0.555556     0
C3       C     0.1875       0.333333     0.569444     0
C4       C     0.21875      0.333333     0.527778     0
C1       C     0.1875       0.333333     0.597222     0
C2       C     0.21875      0.333333     0.638889     0
C3       C     0.1875       0.333333     0.652778     0
C4       C     0.21875      0.333333     0.611111     0
C1       C     0.1875       0.333333     0.680556     0
C2       C     0.21875      0.333333     0.722222     0
C3       C     0.1875       0.333333     0.736111     0
C4       C     0.21875      0.333333     0.694444     0
C1       C     0.1875       0.333333     0.763889     0
C2       C     0.21875      0.333333     0.805556     0
C3       C     0.1875       0.333333     0.819444     0
C4       C     0.21875      0.333333     0.777778     0
C1       C     0.1875       0.333333     0.847222     0
C2       C     0.21875      0.333333     0.888889     0
C3       C     0.1875       0.333333     0.902778     0
C4       C     0.21875      0.333333     0.861111     0
C1       C     0.1875       0.333333     0.930556     0
C2       C     0.21875      0.333333     0.972222     0
C3       C     0.1875       0.333333     0.986111     0
C4       C     0.21875      0.333333     0.944444     0
C1       C     0.1875       0.666667     0.0138892    0
C2       C     0.21875      0.666667     0.0555558    0
C3       C     0.1875       0.666667     0.0694442    0
C4       C     0.21875      0.666667     0.0277775    0
C1       C     0.1875       0.666667     0.0972225    0
C2       C     0.21875      0.666667     0.138889     0
C3       C     0.1875       0.666667     0.152778     0
C4       C     0.21875      0.666667     0.111111     0
C1       C     0.1875       0.666667     0.180556     0
C2       C     0.21875      0.666667     0.222222     0
C3       C     0.1875       0.666667     0.236111     0
C4       C     0.21875      0.666667     0.194444     0
C1       C     0.1875       0.666667     0.263889     0
C2       C     0.21875      0.666667     0.305556     0
C3       C     0.1875       0.666667     0.319444     0
C4       C     0.21875      0.666667     0.277778     0
C1       C     0.1875       0.666667     0.347222     0
C2       C     0.21875      0.666667     0.388889     0
C3       C     0.1875       0.666667     0.402778     0
C4       C     0.21875      0.666667     0.361111     0
C1       C     0.1875       0.666667     0.430556     0
C2       C     0.21875      0.666667     0.472223     0
C3       C     0.1875       0.666667     0.486111     0
C4       C     0.21875      0.666667     0.444444     0
C1       C     0.1875       0.666667     0.513889     0
C2       C     0.21875      0.666667     0.555556     0
C3       C     0.1875       0.666667     0.569444     0
C4       C     0.21875      0.666667     0.527778     0
C1       C     0.1875       0.666667     0.597222     0
C2       C     0.21875      0.666667     0.638889     0
C3       C     0.1875       0.666667     0.652778     0
C4       C     0.21875      0.666667     0.611111     0
C1       C     0.1875       0.666667     0.680556     0
C2       C     0.21875      0.666667     0.722222     0
C3       C     0.1875       0.666667     0.736111     0
C4       C     0.21875      0.666667     0.694444     0
C1       C     0.1875       0.666667     0.763889     0
C2       C     0.21875      0.666667     0.805556     0
C3       C     0.1875       0.666667     0.819444     0
C4       C     0.21875      0.666667     0.777778     0
C1       C     0.1875       0.666667     0.847222     0
C2       C     0.21875      0.666667     0.888889     0
C3       C     0.1875       0.666667     0.902778     0
C4       C     0.21875      0.666667     0.861111     0
C1       C     0.1875       0.666667     0.930556     0
C2       C     0.21875      0.666667     0.972222     0
C3       C     0.1875       0.666667     0.986111     0
C4       C     0.21875      0.666667     0.944444     0
C1       C     0.25         0            0.0138892    0
C2       C     0.28125      0            0.0555558    0
C3       C     0.25         0            0.0694442    0
C4       C     0.28125      0            0.0277775    0
C1       C     0.25         0            0.0972225    0
C2       C     0.28125      0            0.138889     0
C3       C     0.25         0            0.152778     0
C4       C     0.28125      0            0.111111     0
C1       C     0.25         0            0.180556     0
C2       C     0.28125      0            0.222222     0
C3       C     0.25         0            0.236111     0
C4       C     0.28125      0            0.194444     0
C1       C     0.25         0            0.263889     0
C2       C     0.28125      0            0.305556     0
C3       C     0.25         0            0.319444     0
C4       C     0.28125      0            0.277778     0
C1       C     0.25         0            0.347222     0
C2       C     0.28125      0            0.388889     0
C3       C     0.25         0            0.402778     0
C4       C     0.28125      0            0.361111     0
C1       C     0.25         0            0.430556     0
C2       C     0.28125      0            0.472223     0
C3       C     0.25         0            0.486111     0
C4       C     0.28125      0            0.444444     0
C1       C     0.25         0            0.513889     0
C2       C     0.28125      0            0.555556     0
C3       C     0.25         0            0.569444     0
C4       C     0.28125      0            0.527778     0
C1       C     0.25         0            0.597222     0
C2       C     0.28125      0            0.638889     0
C3       C     0.25         0            0.652778     0
C4       C     0.28125      0            0.611111     0
C1       C     0.25         0            0.680556     0
C2       C     0.28125      0            0.722222     0
C3       C     0.25         0            0.736111     0
C4       C     0.28125      0            0.694444     0
C1       C     0.25         0            0.763889     0
C2       C     0.28125      0            0.805556     0
C3       C     0.25         0            0.819444     0
C4       C     0.28125      0            0.777778     0
C1       C     0.25         0            0.847222     0
C2       C     0.28125      0            0.888889     0
C3       C     0.25         0            0.902778     0
C4       C     0.28125      0            0.861111     0
C1       C     0.25         0            0.930556     0
C2       C     0.28125      0            0.972222     0
C3       C     0.25         0            0.986111     0
C4       C     0.28125      0            0.944444     0
C1       C     0.25         0.333333     0.0138892    0
C2       C     0.28125      0.333333     0.0555558    0
C3       C     0.25         0.333333     0.0694442    0
C4       C     0.28125      0.333333     0.0277775    0
C1       C     0.25         0.333333     0.0972225    0
C2       C     0.28125      0.333333     0.138889     0
C3       C     0.25         0.333333     0.152778     0
C4       C     0.28125      0.333333     0.111111     0
C1       C     0.25         0.333333     0.180556     0
C2       C     0.28125      0.333333     0.222222     0
C3       C     0.25         0.333333     0.236111     0
C4       C     0.28125      0.333333     0.194444     0
C1       C     0.25         0.333333     0.263889     0
C2       C     0.28125      0.333333     0.305556     0
C3       C     0.25         0.333333     0.319444     0
C4       C     0.28125      0.333333     0.277778     0
C1       C     0.25         0.333333     0.347222     0
C2       C     0.28125      0.333333     0.388889     0
C3       C     0.25         0.333333     0.402778     0
C4       C     0.28125      0.333333     0.361111     0
C1       C     0.25         0.333333     0.430556     0
C2       C     0.28125      0.333333     0.472223     0
C3       C     0.25         0.333333     0.486111     0
C4       C     0.28125      0.333333     0.444444     0
C1       C     0.25         0.333333     0.513889     0
C2       C     0.28125      0.333333     0.555556     0
C3       C     0.25         0.333333     0.569444     0
C4       C     0.28125      0.333333     0.527778     0
C1       C     0.25         0.333333     0.597222     0
C2       C     0.28125      0.333333     0.638889     0
C3       C     0.25         0.333333     0.652778     0
C4       C     0.28125      0.333333     0.611111     0
C1       C     0.25         0.333333     0.680556     0
C2       C     0.28125      0.333333     0.722222     0
C3       C     0.25         0.333333     0.736111     0
C4       C     0.28125      0.333333     0.694444     0
C1       C     0.25         0.333333     0.763889     0
C2       C     0.28125      0.333333     0.805556     0
C3       C     0.25         0.333333     0.819444     0
C4       C     0.28125      0.333333     0.777778     0
C1       C     0.25         0.333333     0.847222     0
C2       C     0.28125      0.333333     0.888889     0
C3       C     0.25         0.333333     0.902778     0
C4       C     0.28125      0.333333     0.861111     0
C1       C     0.25         0.333333     0.930556     0
C2       C     0.28125      0.333333     0.972222     0
C3       C     0.25         0.333333     0.986111     0
C4       C     0.28125      0.333333     0.944444     0
C1       C     0.25         0.666667     0.0138892    0
C2       C     0.28125      0.666667     0.0555558    0
C3       C     0.25         0.666667     0.0694442    0
C4       C     0.28125      0.666667     0.0277775    0
C1       C     0.25         0.666667     0.0972225    0
C2       C     0.28125      0.666667     0.138889     0
C3       C     0.25         0.666667     0.152778     0
C4       C     0.28125      0.666667     0.111111     0
C1       C     0.25         0.666667     0.180556     0
C2       C     0.28125      0.666667     0.222222     0
C3       C     0.25         0.666667     0.236111     0
C4       C     0.28125      0.666667     0.194444     0
C1       C     0.25         0.666667     0.263889     0
C2       C     0.28125      0.666667     0.305556     0
C3       C     0.25         0.666667     0.319444     0
C4       C     0.28125      0.666667     0.277778     0
C1       C     0.25         0.666667     0.347222     0
C2       C     0.28125      0.666667     0.388889     0
C3       C     0.25         0.666667     0.402778     0
C4       C     0.28125      0.666667     0.361111     0
C1       C     0.25         0.666667     0.430556     0
C2       C     0.28125      0.666667     0.472223     0
C3       C     0.25         0.666667     0.486111     0
C4       C     0.28125      0.666667     0.444444     0
C1       C     0.25         0.666667     0.513889     0
C2       C     0.28125      0.666667     0.555556     0
C3       C     0.25         0.666667     0.569444     0
C4       C     0.28125      0.666667     0.527778     0
C1       C     0.25         0.666667     0.597222     0
C2       C     0.28125      0.666667     0.638889     0
C3       C     0.25         0.666667     0.652778     0
C4       C     0.28125      0.666667     0.611111     0
C1       C     0.25         0.666667     0.680556     0
C2       C     0.28125      0.666667     0.722222     0
C3       C     0.25         0.666667     0.736111     0
C4       C     0.28125      0.666667     0.694444     0
C1       C     0.25         0.666667     0.763889     0
C2       C     0.28125      0.666667     0.805556     0
C3       C     0.25         0.666667     0.819444     0
C4       C     0.28125      0.666667     0.777778     0
C1       C     0.25         0.666667     0.847222     0
C2       C     0.28125      0.666667     0.888889     0
C3       C     0.25         0.666667     0.902778     0
C4       C     0.28125      0.666667     0.861111     0
C1       C     0.25         0.666667     0.930556     0
C2       C     0.28125      0.666667     0.972222     0
C3       C     0.25         0.666667     0.986111     0
C4       C     0.28125      0.666667     0.944444     0
C1       C     0.3125       0            0.0138892    0
C2       C     0.34375      0            0.0555558    0
C3       C     0.3125       0            0.0694442    0
C4       C     0.34375      0            0.0277775    0
C1       C     0.3125       0            0.0972225    0
C2       C     0.34375      0            0.138889     0
C3       C     0.3125       0            0.152778     0
C4       C     0.34375      0            0.111111     0
C1       C     0.3125       0            0.180556     0
C2       C     0.34375      0            0.222222     0
C3       C     0.3125       0            0.236111     0
C4       C     0.34375      0            0.194444     0
C1       C     0.3125       0            0.263889     0
C2       C     0.34375      0            0.305556     0
C3       C     0.3125       0            0.319444     0
C4       C     0.34375      0            0.277778     0
C1       C     0.3125       0            0.347222     0
C2       C     0.34375      0            0.388889     0
C3       C     0.3125       0            0.402778     0
C4       C     0.34375      0            0.361111     0
C1       C     0.3125       0            0.430556     0
C2       C     0.34375      0            0.472223     0
C3       C     0.3125       0            0.486111     0
C4       C     0.34375      0            0.444444     0
C1       C     0.3125       0            0.513889     0
C2       C     0.34375      0            0.555556     0
C3       C     0.3125       0            0.569444     0
C4       C     0.34375      0            0.527778     0
C1       C     0.3125       0            0.597222     0
C2       C     0.34375      0            0.638889     0
C3       C     0.3125       0            0.652778     0
C4       C     0.34375      0            0.611111     0
C1       C     0.3125       0            0.680556     0
C2       C     0.34375      0            0.722222     0
C3       C     0.3125       0            0.736111     0
C4       C     0.34375      0            0.694444     0
C1       C     0.3125       0            0.763889     0
C2       C     0.34375      0            0.805556     0
C3       C     0.3125       0            0.819444     0
C4       C     0.34375      0            0.777778     0
C1       C     0.3125       0            0.847222     0
C2       C     0.34375      0            0.888889     0
C3       C     0.3125       0            0.902778     0
C4       C     0.34375      0            0.861111     0
C1       C     0.3125       0            0.930556     0
C2       C     0.34375      0            0.972222     0
C3       C     0.3125       0            0.986111     0
C4       C     0.34375      0            0.944444     0
C1       C     0.3125       0.333333     0.0138892    0
C2       C     0.34375      0.333333     0.0555558    0
C3       C     0.3125       0.333333     0.0694442    0
C4       C     0.34375      0.333333     0.0277775    0
C1       C     0.3125       0.333333     0.0972225    0
C2       C     0.34375      0.333333     0.138889     0
C3       C     0.3125       0.333333     0.152778     0
C4       C     0.34375      0.333333     0.111111     0
C1       C     0.3125       0.333333     0.180556     0
C2       C     0.34375      0.333333     0.222222     0
C3       C     0.3125       0.333333     0.236111     0
C4       C     0.34375      0.333333     0.194444     0
C1       C     0.3125       0.333333     0.263889     0
C2       C     0.34375      0.333333     0.305556     0
C3       C     0.3125       0.333333     0.319444     0
C4       C     0.34375      0.333333     0.277778     0
C1       C     0.3125       0.333333     0.347222     0
C2       C     0.34375      0.333333     0.388889     0
C3       C     0.3125       0.333333     0.402778     0
C4       C     0.34375      0.333333     0.361111     0
C1       C     0.3125       0.333333     0.430556     0
C2       C     0.34375      0.333333     0.472223     0
C3       C     0.3125       0.333333     0.486111     0
C4       C     0.34375      0.333333     0.444444     0
C1       C     0.3125       0.333333     0.513889     0
C2       C     0.34375      0.333333     0.555556     0
C3       C     0.3125       0.333333     0.569444     0
C4       C     0.34375      0.333333     0.527778     0
C1       C     0.3125       0.333333     0.597222     0
C2       C     0.34375      0.333333     0.638889     0
C3       C     0.3125       0.333333     0.652778     0
C4       C     0.34375      0.333333     0.611111     0
C1       C     0.3125       0.333333     0.680556     0
C2       C     0.34375      0.333333     0.722222     0
C3       C     0.3125       0.333333     0.736111     0
C4       C     0.34375      0.333333     0.694444     0
C1       C     0.3125       0.333333     0.763889     0
C2       C     0.34375      0.333333     0.805556     0
C3       C     0.3125       0.333333     0.819444     0
C4       C     0.34375      0.333333     0.777778     0
C1       C     0.3125       0.333333     0.847222     0
C2       C     0.34375      0.333333     0.888889     0
C3       C     0.3125       0.333333     0.902778     0
C4       C     0.34375      0.333333     0.861111     0
C1       C     0.3125       0.333333     0.930556     0
C2       C     0.34375      0.333333     0.972222     0
C3       C     0.3125       0.333333     0.986111     0
C4       C     0.34375      0.333333     0.944444     0
C1       C     0.3125       0.666667     0.0138892    0
C2       C     0.34375      0.666667     0.0555558    0
C3       C     0.3125       0.666667     0.0694442    0
C4       C     0.34375      0.666667     0.0277775    0
C1       C     0.3125       0.666667     0.0972225    0
C2       C     0.34375      0.666667     0.138889     0
C3       C     0.3125       0.666667     0.152778     0
C4       C     0.34375      0.666667     0.111111     0
C1       C     0.3125       0.666667     0.180556     0
C2       C     0.34375      0.666667     0.222222     0
C3       C     0.3125       0.666667     0.236111     0
C4       C     0.34375      0.666667     0.194444     0
C1       C     0.3125       0.666667     0.263889     0
C2       C     0.34375      0.666667     0.305556     0
C3       C     0.3125       0.666667     0.319444     0
C4       C     0.34375      0.666667     0.277778     0
C1       C     0.3125       0.666667     0.347222     0
C2       C     0.34375      0.666667     0.388889     0
C3       C     0.3125       0.666667     0.402778     0
C4       C     0.34375      0.666667     0.361111     0
C1       C     0.3125       0.666667     0.430556     0
C2       C     0.34375      0.666667     0.472223     0
C3       C     0.3125       0.666667     0.486111     0
C4       C     0.34375      0.666667     0.444444     0
C1       C     0.3125       0.666667     0.513889     0
C2       C     0.34375      0.666667     0.555556     0
C3       C     0.3125       0.666667     0.569444     0
C4       C     0.34375      0.666667     0.527778     0
C1       C     0.3125       0.666667     0.597222     0
C2       C     0.34375      0.666667     0.638889     0
C3       C     0.3125       0.666667     0.652778     0
C4       C     0.34375      0.666667     0.611111     0
C1       C     0.3125       0.666667     0.680556     0
C2       C     0.34375      0.666667     0.722222     0
C3       C     0.3125       0.666667     0.736111     0
C4       C     0.34375      0.666667     0.694444     0
C1       C     0.3125       0.666667     0.763889     0
C2       C     0.34375      0.666667     0.805556     0
C3       C     0.3125       0.666667     0.819444     0
C4       C     0.34375      0.666667     0.777778     0
C1       C     0.3125       0.666667     0.847222     0
C2       C     0.34375      0.666667     0.888889     0
C3       C     0.3125       0.666667     0.902778     0
C4       C     0.34375      0.666667     0.861111     0
C1       C     0.3125       0.666667     0.930556     0
C2       C     0.34375      0.666667     0.972222     0
C3       C     0.3125       0.666667     0.986111     0
C4       C     0.34375      0.666667     0.944444     0
C1       C     0.375        0            0.0138892    0
C2       C     0.40625      0            0.0555558    0
C3       C     0.375        0            0.0694442    0
C4       C     0.40625      0            0.0277775    0
C1       C     0.375        0            0.0972225    0
C2       C     0.40625      0            0.138889     0
C3       C     0.375        0            0.152778     0
C4       C     0.40625      0            0.111111     0
C1       C     0.375        0            0.180556     0
C2       C     0.40625      0            0.222222     0
C3       C     0.375        0            0.236111     0
C4       C     0.40625      0            0.194444     0
C1       C     0.375        0            0.263889     0
C2       C     0.40625      0            0.305556     0
C3       C     0.375        0            0.319444     0
C4       C     0.40625      0            0.277778     0
C1       C     0.375        0            0.347222     0
C2       C     0.40625      0            0.388889     0
C3       C     0.375        0            0.402778     0
C4       C     0.40625      0            0.361111     0
C1       C     0.375        0            0.430556     0
C2       C     0.40625      0            0.472223     0
C3       C     0.375        0            0.486111     0
C4       C     0.40625      0            0.444444     0
C1       C     0.375        0            0.513889     0
C2       C     0.40625      0            0.555556     0
C3       C     0.375        0            0.569444     0
C4       C     0.40625      0            0.527778     0
C1       C     0.375        0            0.597222     0
C2       C     0.40625      0            0.638889     0
C3       C     0.375        0            0.652778     0
C4       C     0.40625      0            0.611111     0
C1       C     0.375        0            0.680556     0
C2       C     0.40625      0            0.722222     0
C3       C     0.375        0            0.736111     0
C4       C     0.40625      0            0.694444     0
C1       C     0.375        0            0.763889     0
C2       C     0.40625      0            0.805556     0
C3       C     0.375        0            0.819444     0
C4       C     0.40625      0            0.777778     0
C1       C     0.375        0            0.847222     0
C2       C     0.40625      0            0.888889     0
C3       C     0.375        0            0.902778     0
C4       C     0.40625      0            0.861111     0
C1       C     0.375        0            0.930556     0
C2       C     0.40625      0            0.972222     0
C3       C     0.375        0            0.986111     0
C4       C     0.40625      0            0.944444     0
C1       C     0.375        0.333333     0.0138892    0
C2       C     0.40625      0.333333     0.0555558    0
C3       C     0.375        0.333333     0.0694442    0
C4       C     0.40625      0.333333     0.0277775    0
C1       C     0.375        0.333333     0.0972225    0
C2       C     0.40625      0.333333     0.138889     0
C3       C     0.375        0.333333     0.152778     0
C4       C     0.40625      0.333333     0.111111     0
C1       C     0.375        0.333333     0.180556     0
C2       C     0.40625      0.333333     0.222222     0
C3       C     0.375        0.333333     0.236111     0
C4       C     0.40625      0.333333     0.194444     0
C1       C     0.375        0.333333     0.263889     0
C2       C     0.40625      0.333333     0.305556     0
C3       C     0.375        0.333333     0.319444     0
C4       C     0.40625      0.333333     0.277778     0
C1       C     0.375        0.333333     0.347222     0
C2       C     0.40625      0.333333     0.388889     0
C3       C     0.375        0.333333     0.402778     0
C4       C     0.40625      0.333333     0.361111     0
C1       C     0.375        0.333333     0.430556     0
C2       C     0.40625      0.333333     0.472223     0
C3       C     0.375        0.333333     0.486111     0
C4       C     0.40625      0.333333     0.444444     0
C1       C     0.375        0.333333     0.513889     0
C2       C     0.40625      0.333333     0.555556     0
C3       C     0.375        0.333333     0.569444     0
C4       C     0.40625      0.333333     0.527778     0
C1       C     0.375        0.333333     0.597222     0
C2       C     0.40625      0.333333     0.638889     0
C3       C     0.375        0.333333     0.652778     0
C4       C     0.40625      0.333333     0.611111     0
C1       C     0.375        0.333333     0.680556     0
C2       C     0.40625      0.333333     0.722222     0
C3       C     0.375        0.333333     0.736111     0
C4       C     0.40625      0.333333     0.694444     0
C1       C     0.375        0.333333     0.763889     0
C2       C     0.40625      0.333333     0.805556     0
C3       C     0.375        0.333333     0.819444     0
C4       C     0.40625      0.333333     0.777778     0
C1       C     0.375        0.333333     0.847222     0
C2       C     0.40625      0.333333     0.888889     0
C3       C     0.375        0.333333     0.902778     0
C4       C     0.40625      0.333333     0.861111     0
C1       C     0.375        0.333333     0.930556     0
C2       C     0.40625      0.333333     0.972222     0
C3       C     0.375        0.333333     0.986111     0
C4       C     0.40625      0.333333     0.944444     0
C1       C     0.375        0.666667     0.0138892    0
C2       C     0.40625      0.666667     0.0555558    0
C3       C     0.375        0.666667     0.0694442    0
C4       C     0.40625      0.666667     0.0277775    0
C1       C     0.375        0.666667     0.0972225    0
C2       C     0.40625      0.666667     0.138889     0
C3       C     0.375        0.666667     0.152778     0
C4       C     0.40625      0.666667     0.111111     0
C1       C     0.375        0.666667     0.180556     0
C2       C     0.40625      0.666667     0.222222     0
C3       C     0.375        0.666667     0.236111     0
C4       C     0.40625      0.666667     0.194444     0
C1       C     0.375        0.666667     0.263889     0
C2       C     0.40625      0.666667     0.305556     0
C3       C     0.375        0.666667     0.319444     0
C4       C     0.40625      0.666667     0.277778     0
C1       C     0.375        0.666667     0.347222     0
C2       C     0.40625      0.666667     0.388889     0
C3       C     0.375        0.666667     0.402778     0
C4       C     0.40625      0.666667     0.361111     0
C1       C     0.375        0.666667     0.430556     0
C2       C     0.40625      0.666667     0.472223     0
C3       C     0.375        0.666667     0.486111     0
C4       C     0.40625      0.666667     0.444444     0
C1       C     0.375        0.666667     0.513889     0
C2       C     0.40625      0.666667     0.555556     0
C3       C     0.375        0.666667     0.569444     0
C4       C     0.40625      0.666667     0.527778     0
C1       C     0.375        0.666667     0.597222     0
C2       C     0.40625      0.666667     0.638889     0
C3       C     0.375        0.666667     0.652778     0
C4       C     0.40625      0.666667     0.611111     0
C1       C     0.375        0.666667     0.680556     0
C2       C     0.40625      0.666667     0.722222     0
C3       C     0.375        0.666667     0.736111     0
C4       C     0.40625      0.666667     0.694444     0
C1       C     0.375        0.666667     0.763889     0
C2       C     0.40625      0.666667     0.805556     0
C3       C     0.375        0.666667     0.819444     0
C4       C     0.40625      0.666667     0.777778     0
C1       C     0.375        0.666667     0.847222     0
C2       C     0.40625      0.666667     0.888889     0
C3       C     0.375        0.666667     0.902778     0
C4       C     0.40625      0.666667     0.861111     0
C1       C     0.375        0.666667     0.930556     0
C2       C     0.40625      0.666667     0.972222     0
C3       C     0.375        0.666667     0.986111     0
C4       C     0.40625      0.666667     0.944444     0
C1       C     0.4375       0            0.0138892    0
C2       C     0.46875      0            0.0555558    0
C3       C     0.4375       0            0.0694442    0
C4       C     0.46875      0            0.0277775    0
C1       C     0.4375       0            0.0972225    0
C2       C     0.46875      0            0.138889     0
C3       C     0.4375       0            0.152778     0
C4       C     0.46875      0            0.111111     0
C1       C     0.4375       0            0.180556     0
C2       C     0.46875      0            0.222222     0
C3       C     0.4375       0            0.236111     0
C4       C     0.46875      0            0.194444     0
C1       C     0.4375       0            0.263889     0
C2       C     0.46875      0            0.305556     0
C3       C     0.4375       0            0.319444     0
C4       C     0.46875      0            0.277778     0
C1       C     0.4375       0            0.347222     0
C2       C     0.46875      0            0.388889     0
C3       C     0.4375       0            0.402778     0
C4       C     0.46875      0            0.361111     0
C1       C     0.4375       0            0.430556     0
C2       C     0.46875      0            0.472223     0
C3       C     0.4375       0            0.486111     0
C4       C     0.46875      0            0.444444     0
C1       C     0.4375       0            0.513889     0
C2       C     0.46875      0            0.555556     0
C3       C     0.4375       0            0.569444     0
C4       C     0.46875      0            0.527778     0
C1       C     0.4375       0            0.597222     0
C2       C     0.46875      0            0.638889     0
C3       C     0.4375       0            0.652778     0
C4       C     0.46875      0            0.611111     0
C1       C     0.4375       0            0.680556     0
C2       C     0.46875      0            0.722222     0
C3       C     0.4375       0            0.736111     0
C4       C     0.46875      0            0.694444     0
C1       C     0.4375       0            0.763889     0
C2       C     0.46875      0            0.805556     0
C3       C     0.4375       0            0.819444     0
C4       C     0.46875      0            0.777778     0
C1       C     0.4375       0            0.847222     0
C2       C     0.46875      0            0.888889     0
C3       C     0.4375       0            0.902778     0
C4       C     0.46875      0            0.861111     0
C1       C     0.4375       0            0.930556     0
C2       C     0.46875      0            0.972222     0
C3       C     0.4375       0            0.986111     0
C4       C     0.46875      0            0.944444     0
C1       C     0.4375       0.333333     0.0138892    0
C2       C     0.46875      0.333333     0.0555558    0
C3       C     0.4375       0.333333     0.0694442    0
C4       C     0.46875      0.333333     0.0277775    0
C1       C     0.4375       0.333333     0.0972225    0
C2       C     0.46875      0.333333     0.138889     0
C3       C     0.4375       0.333333     0.152778     0
C4       C     0.46875      0.333333     0.111111     0
C1       C     0.4375       0.333333     0.180556     0
C2       C     0.46875      0.333333     0.222222     0
C3       C     0.4375       0.333333     0.236111     0
C4       C     0.46875      0.333333     0.194444     0
C1       C     0.4375       0.333333     0.263889     0
C2       C     0.46875      0.333333     0.305556     0
C3       C     0.4375       0.333333     0.319444     0
C4       C     0.46875      0.333333     0.277778     0
C1       C     0.4375       0.333333     0.347222     0
C2       C     0.46875      0.333333     0.388889     0
C3       C     0.4375       0.333333     0.402778     0
C4       C     0.46875      0.333333     0.361111     0
C1       C     0.4375       0.333333     0.430556     0
C2       C     0.46875      0.333333     0.472223     0
C3       C     0.4375       0.333333     0.486111     0
C4       C     0.46875      0.333333     0.444444     0
C1       C     0.4375       0.333333     0.513889     0
C2       C     0.46875      0.333333     0.555556     0
C3       C     0.4375       0.333333     0.569444     0
C4       C     0.46875      0.333333     0.527778     0
C1       C     0.4375       0.333333     0.597222     0
C2       C     0.46875      0.333333     0.638889     0
C3       C     0.4375       0.333333     0.652778     0
C4       C     0.46875      0.333333     0.611111     0
C1       C     0.4375       0.333333     0.680556     0
C2       C     0.46875      0.333333     0.722222     0
C3       C     0.4375       0.333333     0.736111     0
C4       C     0.46875      0.333333     0.694444     0
C1       C     0.4375       0.333333     0.763889     0
C2       C     0.46875      0.333333     0.805556     0
C3       C     0.4375       0.333333     0.819444     0
C4       C     0.46875      0.333333     0.777778     0
C1       C     0.4375       0.333333     0.847222     0
C2       C     0.46875      0.333333     0.888889     0
C3       C     0.4375       0.333333     0.902778     0
C4       C     0.46875      0.333333     0.861111     0
C1       C     0.4375       0.333333     0.930556     0
C2       C     0.46875      0.333333     0.972222     0
C3       C     0.4375       0.333333     0.986111     0
C4       C     0.46875      0.333333     0.944444     0
C1       C     0.4375       0.666667     0.0138892    0
C2       C     0.46875      0.666667     0.0555558    0
C3       C     0.4375       0.666667     0.0694442    0
C4       C     0.46875      0.666667     0.0277775    0
C1       C     0.4375       0.666667     0.0972225    0
C2       C     0.46875      0.666667     0.138889     0
C3       C     0.4375       0.666667     0.152778     0
C4       C     0.46875      0.666667     0.111111     0
C1       C     0.4375       0.666667     0.180556     0
C2       C     0.46875      0.666667     0.222222     0
C3       C     0.4375       0.666667     0.236111     0
C4       C     0.46875      0.666667     0.194444     0
C1       C     0.4375       0.666667     0.263889     0
C2       C     0.46875      0.666667     0.305556     0
C3       C     0.4375       0.666667     0.319444     0
C4       C     0.46875      0.666667     0.277778     0
C1       C     0.4375       0.666667     0.347222     0
C2       C     0.46875      0.666667     0.388889     0
C3       C     0.4375       0.666667     0.402778     0
C4       C     0.46875      0.666667     0.361111     0
C1       C     0.4375       0.666667     0.430556     0
C2       C     0.46875      0.666667     0.472223     0
C3       C     0.4375       0.666667     0.486111     0
C4       C     0.46875      0.666667     0.444444     0
C1       C     0.4375       0.666667     0.513889     0
C2       C     0.46875      0.666667     0.555556     0
C3       C     0.4375       0.666667     0.569444     0
C4       C     0.46875      0.666667     0.527778     0
C1       C     0.4375       0.666667     0.597222     0
C2       C     0.46875      0.666667     0.638889     0
C3       C     0.4375       0.666667     0.652778     0
C4       C     0.46875      0.666667     0.611111     0
C1       C     0.4375       0.666667     0.680556     0
C2       C     0.46875      0.666667     0.722222     0
C3       C     0.4375       0.666667     0.736111     0
C4       C     0.46875      0.666667     0.694444     0
C1       C     0.4375       0.666667     0.763889     0
C2       C     0.46875      0.666667     0.805556     0
C3       C     0.4375       0.666667     0.819444     0
C4       C     0.46875      0.666667     0.777778     0
C1       C     0.4375       0.666667     0.847222     0
C2       C     0.46875      0.666667     0.888889     0
C3       C     0.4375       0.666667     0.902778     0
C4       C     0.46875      0.666667     0.861111     0
C1       C     0.4375       0.666667     0.930556     0
C2       C     0.46875      0.666667     0.972222     0
C3       C     0.4375       0.666667     0.986111     0
C4       C     0.46875      0.666667     0.944444     0
C1       C     0.5          0            0.0138892    0
C2       C     0.53125      0            0.0555558    0
C3       C     0.5          0            0.0694442    0
C4       C     0.53125      0            0.0277775    0
C1       C     0.5          0            0.0972225    0
C2       C     0.53125      0            0.138889     0
C3       C     0.5          0            0.152778     0
C4       C     0.53125      0            0.111111     0
C1       C     0.5          0            0.180556     0
C2       C     0.53125      0            0.222222     0
C3       C     0.5          0            0.236111     0
C4       C     0.53125      0            0.194444     0
C1       C     0.5          0            0.263889     0
C2       C     0.53125      0            0.305556     0
C3       C     0.5          0            0.319444     0
C4       C     0.53125      0            0.277778     0
C1       C     0.5          0            0.347222     0
C2       C     0.53125      0            0.388889     0
C3       C     0.5          0            0.402778     0
C4       C     0.53125      0            0.361111     0
C1       C     0.5          0            0.430556     0
C2       C     0.53125      0            0.472223     0
C3       C     0.5          0            0.486111     0
C4       C     0.53125      0            0.444444     0
C1       C     0.5          0            0.513889     0
C2       C     0.53125      0            0.555556     0
C3       C     0.5          0            0.569444     0
C4       C     0.53125      0            0.527778     0
C1       C     0.5          0            0.597222     0
C2       C     0.53125      0            0.638889     0
C3       C     0.5          0            0.652778     0
C4       C     0.53125      0            0.611111     0
C1       C     0.5          0            0.680556     0
C2       C     0.53125      0            0.722222     0
C3       C     0.5          0            0.736111     0
C4       C     0.53125      0            0.694444     0
C1       C     0.5          0            0.763889     0
C2       C     0.53125      0            0.805556     0
C3       C     0.5          0            0.819444     0
C4       C     0.53125      0            0.777778     0
C1       C     0.5          0            0.847222     0
C2       C     0.53125      0            0.888889     0
C3       C     0.5          0            0.902778     0
C4       C     0.53125      0            0.861111     0
C1       C     0.5          0            0.930556     0
C2       C     0.53125      0            0.972222     0
C3       C     0.5          0            0.986111     0
C4       C     0.53125      0            0.944444     0
C1       C     0.5          0.333333     0.0138892    0
C2       C     0.53125      0.333333     0.0555558    0
C3       C     0.5          0.333333     0.0694442    0
C4       C     0.53125      0.333333     0.0277775    0
C1       C     0.5          0.333333     0.0972225    0
C2       C     0.53125      0.333333     0.138889     0
C3       C     0.5          0.333333     0.152778     0
C4       C     0.53125      0.333333     0.111111     0
C1       C     0.5          0.333333     0.180556     0
C2       C     0.53125      0.333333     0.222222     0
C3       C     0.5          0.333333     0.236111     0
C4       C     0.53125      0.333333     0.194444     0
C1       C     0.5          0.333333     0.263889     0
C2       C     0.53125      0.333333     0.305556     0
C3       C     0.5          0.333333     0.319444     0
C4       C     0.53125      0.333333     0.277778     0
C1       C     0.5          0.333333     0.347222     0
C2       C     0.53125      0.333333     0.388889     0
C3       C     0.5          0.333333     0.402778     0
C4       C     0.53125      0.333333     0.361111     0
C1       C     0.5          0.333333     0.430556     0
C2       C     0.53125      0.333333     0.472223     0
C3       C     0.5          0.333333     0.486111     0
C4       C     0.53125      0.333333     0.444444     0
C1       C     0.5          0.333333     0.513889     0
C2       C     0.53125      0.333333     0.555556     0
C3       C     0.5          0.333333     0.569444     0
C4       C     0.53125      0.333333     0.527778     0
C1       C     0.5          0.333333     0.597222     0
C2       C     0.53125      0.333333     0.638889     0
C3       C     0.5          0.333333     0.652778     0
C4       C     0.53125      0.333333     0.611111     0
C1       C     0.5          0.333333     0.680556     0
C2       C     0.53125      0.333333     0.722222     0
C3       C     0.5          0.333333     0.736111     0
C4       C     0.53125      0.333333     0.694444     0
C1       C     0.5          0.333333     0.763889     0
C2       C     0.53125      0.333333     0.805556     0
C3       C     0.5          0.333333     0.819444     0
C4       C     0.53125      0.333333     0.777778     0
C1       C     0.5          0.333333     0.847222     0
C2       C     0.53125      0.333333     0.888889     0
C3       C     0.5          0.333333     0.902778     0
C4       C     0.53125      0.333333     0.861111     0
C1       C     0.5          0.333333     0.930556     0
C2       C     0.53125      0.333333     0.972222     0
C3       C     0.5          0.333333     0.986111     0
C4       C     0.53125      0.333333     0.944444     0
C1       C     0.5          0.666667     0.0138892    0
C2       C     0.53125      0.666667     0.0555558    0
C3       C     0.5          0.666667     0.0694442    0
C4       C     0.53125      0.666667     0.0277775    0
C1       C     0.5          0.666667     0.0972225    0
C2       C     0.53125      0.666667     0.138889     0
C3       C     0.5          0.666667     0.152778     0
C4       C     0.53125      0.666667     0.111111     0
C1       C     0.5          0.666667     0.180556     0
C2       C     0.53125      0.666667     0.222222     0
C3       C     0.5          0.666667     0.236111     0
C4       C     0.53125      0.666667     0.194444     0
C1       C     0.5          0.666667     0.263889     0
C2       C     0.53125      0.666667     0.305556     0
C3       C     0.5          0.666667     0.319444     0
C4       C     0.53125      0.666667     0.277778     0
C1       C     0.5          0.666667     0.347222     0
C2       C     0.53125      0.666667     0.388889     0
C3       C     0.5          0.666667     0.402778     0
C4       C     0.53125      0.666667     0.361111     0
C1       C     0.5          0.666667     0.430556     0
C2       C     0.53125      0.666667     0.472223     0
C3       C     0.5          0.666667     0.486111     0
C4       C     0.53125      0.666667     0.444444     0
C1       C     0.5          0.666667     0.513889     0
C2       C     0.53125      0.666667     0.555556     0
C3       C     0.5          0.666667     0.569444     0
C4       C     0.53125      0.666667     0.527778     0
C1       C     0.5          0.666667     0.597222     0
C2       C     0.53125      0.666667     0.638889     0
C3       C     0.5          0.666667     0.652778     0
C4       C     0.53125      0.666667     0.611111     0
C1       C     0.5          0.666667     0.680556     0
C2       C     0.53125      0.666667     0.722222     0
C3       C     0.5          0.666667     0.736111     0
C4       C     0.53125      0.666667     0.694444     0
C1       C     0.5          0.666667     0.763889     0
C2       C     0.53125      0.666667     0.805556     0
C3       C     0.5          0.666667     0.819444     0
C4       C     0.53125      0.666667     0.777778     0
C1       C     0.5          0.666667     0.847222     0
C2       C     0.53125      0.666667     0.888889     0
C3       C     0.5          0.666667     0.902778     0
C4       C     0.53125      0.666667     0.861111     0
C1       C     0.5          0.666667     0.930556     0
C2       C     0.53125      0.666667     0.972222     0
C3       C     0.5          0.666667     0.986111     0
C4       C     0.53125      0.666667     0.944444     0
C1       C     0.5625       0            0.0138892    0
C2       C     0.59375      0            0.0555558    0
C3       C     0.5625       0            0.0694442    0
C4       C     0.59375      0            0.0277775    0
C1       C     0.5625       0            0.0972225    0
C2       C     0.59375      0            0.138889     0
C3       C     0.5625       0            0.152778     0
C4       C     0.59375      0            0.111111     0
C1       C     0.5625       0            0.180556     0
C2       C     0.59375      0            0.222222     0
C3       C     0.5625       0            0.236111     0
C4       C     0.59375      0            0.194444     0
C1       C     0.5625       0            0.263889     0
C2       C     0.59375      0            0.305556     0
C3       C     0.5625       0            0.319444     0
C4       C     0.59375      0            0.277778     0
C1       C     0.5625       0            0.347222     0
C2       C     0.59375      0            0.388889     0
C3       C     0.5625       0            0.402778     0
C4       C     0.59375      0            0.361111     0
C1       C     0.5625       0            0.430556     0
C2       C     0.59375      0            0.472223     0
C3       C     0.5625       0            0.486111     0
C4       C     0.59375      0            0.444444     0
C1       C     0.5625       0            0.513889     0
C2       C     0.59375      0            0.555556     0
C3       C     0.5625       0            0.569444     0
C4       C     0.59375      0            0.527778     0
C1       C     0.5625       0            0.597222     0
C2       C     0.59375      0            0.638889     0
C3       C     0.5625       0            0.652778     0
C4       C     0.59375      0            0.611111     0
C1       C     0.5625       0            0.680556     0
C2       C     0.59375      0            0.722222     0
C3       C     0.5625       0            0.736111     0
C4       C     0.59375      0            0.694444     0
C1       C     0.5625       0            0.763889     0
C2       C     0.59375      0            0.805556     0
C3       C     0.5625       0            0.819444     0
C4       C     0.59375      0            0.777778     0
C1       C     0.5625       0            0.847222     0
C2       C     0.59375      0            0.888889     0
C3       C     0.5625       0            0.902778     0
C4       C     0.59375      0            0.861111     0
C1       C     0.5625       0            0.930556     0
C2       C     0.59375      0            0.972222     0
C3       C     0.5625       0            0.986111     0
C4       C     0.59375      0            0.944444     0
C1       C     0.5625       0.333333     0.0138892    0
C2       C     0.59375      0.333333     0.0555558    0
C3       C     0.5625       0.333333     0.0694442    0
C4       C     0.59375      0.333333     0.0277775    0
C1       C     0.5625       0.333333     0.0972225    0
C2       C     0.59375      0.333333     0.138889     0
C3       C     0.5625       0.333333     0.152778     0
C4       C     0.59375      0.333333     0.111111     0
C1       C     0.5625       0.333333     0.180556     0
C2       C     0.59375      0.333333     0.222222     0
C3       C     0.5625       0.333333     0.236111     0
C4       C     0.59375      0.333333     0.194444     0
C1       C     0.5625       0.333333     0.263889     0
C2       C     0.59375      0.333333     0.305556     0
C3       C     0.5625       0.333333     0.319444     0
C4       C     0.59375      0.333333     0.277778     0
C1       C     0.5625       0.333333     0.347222     0
C2       C     0.59375      0.333333     0.388889     0
C3       C     0.5625       0.333333     0.402778     0
C4       C     0.59375      0.333333     0.361111     0
C1       C     0.5625       0.333333     0.430556     0
C2       C     0.59375      0.333333     0.472223     0
C3       C     0.5625       0.333333     0.486111     0
C4       C     0.59375      0.333333     0.444444     0
C1       C     0.5625       0.333333     0.513889     0
C2       C     0.59375      0.333333     0.555556     0
C3       C     0.5625       0.333333     0.569444     0
C4       C     0.59375      0.333333     0.527778     0
C1       C     0.5625       0.333333     0.597222     0
C2       C     0.59375      0.333333     0.638889     0
C3       C     0.5625       0.333333     0.652778     0
C4       C     0.59375      0.333333     0.611111     0
C1       C     0.5625       0.333333     0.680556     0
C2       C     0.59375      0.333333     0.722222     0
C3       C     0.5625       0.333333     0.736111     0
C4       C     0.59375      0.333333     0.694444     0
C1       C     0.5625       0.333333     0.763889     0
C2       C     0.59375      0.333333     0.805556     0
C3       C     0.5625       0.333333     0.819444     0
C4       C     0.59375      0.333333     0.777778     0
C1       C     0.5625       0.333333     0.847222     0
C2       C     0.59375      0.333333     0.888889     0
C3       C     0.5625       0.333333     0.902778     0
C4       C     0.59375      0.333333     0.861111     0
C1       C     0.5625       0.333333     0.930556     0
C2       C     0.59375      0.333333     0.972222     0
C3       C     0.5625       0.333333     0.986111     0
C4       C     0.59375      0.333333     0.944444     0
C1       C     0.5625       0.666667     0.0138892    0
C2       C     0.59375      0.666667     0.0555558    0
C3       C     0.5625       0.666667     0.0694442    0
C4       C     0.59375      0.666667     0.0277775    0
C1       C     0.5625       0.666667     0.0972225    0
C2       C     0.59375      0.666667     0.138889     0
C3       C     0.5625       0.666667     0.152778     0
C4       C     0.59375      0.666667     0.111111     0
C1       C     0.5625       0.666667     0.180556     0
C2       C     0.59375      0.666667     0.222222     0
C3       C     0.5625       0.666667     0.236111     0
C4       C     0.59375      0.666667     0.194444     0
C1       C     0.5625       0.666667     0.263889     0
C2       C     0.59375      0.666667     0.305556     0
C3       C     0.5625       0.666667     0.319444     0
C4       C     0.59375      0.666667     0.277778     0
C1       C     0.5625       0.666667     0.347222     0
C2       C     0.59375      0.666667     0.388889     0
C3       C     0.5625       0.666667     0.402778     0
C4       C     0.59375      0.666667     0.361111     0
C1       C     0.5625       0.666667     0.430556     0
C2       C     0.59375      0.666667     0.472223     0
C3       C     0.5625       0.666667     0.486111     0
C4       C     0.59375      0.666667     0.444444     0
C1       C     0.5625       0.666667     0.513889     0
C2       C     0.59375      0.666667     0.555556     0
C3       C     0.5625       0.666667     0.569444     0
C4       C     0.59375      0.666667     0.527778     0
C1       C     0.5625       0.666667     0.597222     0
C2       C     0.59375      0.666667     0.638889     0
C3       C     0.5625       0.666667     0.652778     0
C4       C     0.59375      0.666667     0.611111     0
C1       C     0.5625       0.666667     0.680556     0
C2       C     0.59375      0.666667     0.722222     0
C3       C     0.5625       0.666667     0.736111     0
C4       C     0.59375      0.666667     0.694444     0
C1       C     0.5625       0.666667     0.763889     0
C2       C     0.59375      0.666667     0.805556     0
C3       C     0.5625       0.666667     0.819444     0
C4       C     0.59375      0.666667     0.777778     0
C1       C     0.5625       0.666667     0.847222     0
C2       C     0.59375      0.666667     0.888889     0
C3       C     0.5625       0.666667     0.902778     0
C4       C     0.59375      0.666667     0.861111     0
C1       C     0.5625       0.666667     0.930556     0
C2       C     0.59375      0.666667     0.972222     0
C3       C     0.5625       0.666667     0.986111     0
C4       C     0.59375      0.666667     0.944444     0
C1       C     0.625        0            0.0138892    0
C2       C     0.65625      0            0.0555558    0
C3       C     0.625        0            0.0694442    0
C4       C     0.65625      0            0.0277775    0
C1       C     0.625        0            0.0972225    0
C2       C     0.65625      0            0.138889     0
C3       C     0.625        0            0.152778     0
C4       C     0.65625      0            0.111111     0
C1       C     0.625        0            0.180556     0
C2       C     0.65625      0            0.222222     0
C3       C     0.625        0            0.236111     0
C4       C     0.65625      0            0.194444     0
C1       C     0.625        0            0.263889     0
C2       C     0.65625      0            0.305556     0
C3       C     0.625        0            0.319444     0
C4       C     0.65625      0            0.277778     0
C1       C     0.625        0            0.347222     0
C2       C     0.65625      0            0.388889     0
C3       C     0.625        0            0.402778     0
C4       C     0.65625      0            0.361111     0
C1       C     0.625        0            0.430556     0
C2       C     0.65625      0            0.472223     0
C3       C     0.625        0            0.486111     0
C4       C     0.65625      0            0.444444     0
C1       C     0.625        0            0.513889     0
C2       C     0.65625      0            0.555556     0
C3       C     0.625        0            0.569444     0
C4       C     0.65625      0            0.527778     0
C1       C     0.625        0            0.597222     0
C2       C     0.65625      0            0.638889     0
C3       C     0.625        0            0.652778     0
C4       C     0.65625      0            0.611111     0
C1       C     0.625        0            0.680556     0
C2       C     0.65625      0            0.722222     0
C3       C     0.625        0            0.736111     0
C4       C     0.65625      0            0.694444     0
C1       C     0.625        0            0.763889     0
C2       C     0.65625      0            0.805556     0
C3       C     0.625        0            0.819444     0
C4       C     0.65625      0            0.777778     0
C1       C     0.625        0            0.847222     0
C2       C     0.65625      0            0.888889     0
C3       C     0.625        0            0.902778     0
C4       C     0.65625      0            0.861111     0
C1       C     0.625        0            0.930556     0
C2       C     0.65625      0            0.972222     0
C3       C     0.625        0            0.986111     0
C4       C     0.65625      0            0.944444     0
C1       C     0.625        0.333333     0.0138892    0
C2       C     0.65625      0.333333     0.0555558    0
C3       C     0.625        0.333333     0.0694442    0
C4       C     0.65625      0.333333     0.0277775    0
C1       C     0.625        0.333333     0.0972225    0
C2       C     0.65625      0.333333     0.138889     0
C3       C     0.625        0.333333     0.152778     0
C4       C     0.65625      0.333333     0.111111     0
C1       C     0.625        0.333333     0.180556     0
C2       C     0.65625      0.333333     0.222222     0
C3       C     0.625        0.333333     0.236111     0
C4       C     0.65625      0.333333     0.194444     0
C1       C     0.625        0.333333     0.263889     0
C2       C     0.65625      0.333333     0.305556     0
C3       C     0.625        0.333333     0.319444     0
C4       C     0.65625      0.333333     0.277778     0
C1       C     0.625        0.333333     0.347222     0
C2       C     0.65625      0.333333     0.388889     0
C3       C     0.625        0.333333     0.402778     0
C4       C     0.65625      0.333333     0.361111     0
C1       C     0.625        0.333333     0.430556     0
C2       C     0.65625      0.333333     0.472223     0
C3       C     0.625        0.333333     0.486111     0
C4       C     0.65625      0.333333     0.444444     0
C1       C     0.625        0.333333     0.513889     0
C2       C     0.65625      0.333333     0.555556     0
C3       C     0.625        0.333333     0.569444     0
C4       C     0.65625      0.333333     0.527778     0
C1       C     0.625        0.333333     0.597222     0
C2       C     0.65625      0.333333     0.638889     0
C3       C     0.625        0.333333     0.652778     0
C4       C     0.65625      0.333333     0.611111     0
C1       C     0.625        0.333333     0.680556     0
C2       C     0.65625      0.333333     0.722222     0
C3       C     0.625        0.333333     0.736111     0
C4       C     0.65625      0.333333     0.694444     0
C1       C     0.625        0.333333     0.763889     0
C2       C     0.65625      0.333333     0.805556     0
C3       C     0.625        0.333333     0.819444     0
C4       C     0.65625      0.333333     0.777778     0
C1       C     0.625        0.333333     0.847222     0
C2       C     0.65625      0.333333     0.888889     0
C3       C     0.625        0.333333     0.902778     0
C4       C     0.65625      0.333333     0.861111     0
C1       C     0.625        0.333333     0.930556     0
C2       C     0.65625      0.333333     0.972222     0
C3       C     0.625        0.333333     0.986111     0
C4       C     0.65625      0.333333     0.944444     0
C1       C     0.625        0.666667     0.0138892    0
C2       C     0.65625      0.666667     0.0555558    0
C3       C     0.625        0.666667     0.0694442    0
C4       C     0.65625      0.666667     0.0277775    0
C1       C     0.625        0.666667     0.0972225    0
C2       C     0.65625      0.666667     0.138889     0
C3       C     0.625        0.666667     0.152778     0
C4       C     0.65625      0.666667     0.111111     0
C1       C     0.625        0.666667     0.180556     0
C2       C     0.65625      0.666667     0.222222     0
C3       C     0.625        0.666667     0.236111     0
C4       C     0.65625      0.666667     0.194444     0
C1       C     0.625        0.666667     0.263889     0
C2       C     0.65625      0.666667     0.305556     0
C3       C     0.625        0.666667     0.319444     0
C4       C     0.65625      0.666667     0.277778     0
C1       C     0.625        0.666667     0.347222     0
C2       C     0.65625      0.666667     0.388889     0
C3       C     0.625        0.666667     0.402778     0
C4       C     0.65625      0.666667     0.361111     0
C1       C     0.625        0.666667     0.430556     0
C2       C     0.65625      0.666667     0.472223     0
C3       C     0.625        0.666667     0.486111     0
C4       C     0.65625      0.666667     0.444444     0
C1       C     0.625        0.666667     0.513889     0
C2       C     0.65625      0.666667     0.555556     0
C3       C     0.625        0.666667     0.569444     0
C4       C     0.65625      0.666667     0.527778     0
C1       C     0.625        0.666667     0.597222     0
C2       C     0.65625      0.666667     0.638889     0
C3       C     0.625        0.666667     0.652778     0
C4       C     0.65625      0.666667     0.611111     0
C1       C     0.625        0.666667     0.680556     0
C2       C     0.65625      0.666667     0.722222     0
C3       C     0.625        0.666667     0.736111     0
C4       C     0.65625      0.666667     0.694444     0
C1       C     0.625        0.666667     0.763889     0
C2       C     0.65625      0.666667     0.805556     0
C3       C     0.625        0.666667     0.819444     0
C4       C     0.65625      0.666667     0.777778     0
C1       C     0.625        0.666667     0.847222     0
C2       C     0.65625      0.666667     0.888889     0
C3       C     0.625        0.666667     0.902778     0
C4       C     0.65625      0.666667     0.861111     0
C1       C     0.625        0.666667     0.930556     0
C2       C     0.65625      0.666667     0.972222     0
C3       C     0.625        0.666667     0.986111     0
C4       C     0.65625      0.666667     0.944444     0
C1       C     0.6875       0            0.0138892    0
C2       C     0.71875      0            0.0555558    0
C3       C     0.6875       0            0.0694442    0
C4       C     0.71875      0            0.0277775    0
C1       C     0.6875       0            0.0972225    0
C2       C     0.71875      0            0.138889     0
C3       C     0.6875       0            0.152778     0
C4       C     0.71875      0            0.111111     0
C1       C     0.6875       0            0.180556     0
C2       C     0.71875      0            0.222222     0
C3       C     0.6875       0            0.236111     0
C4       C     0.71875      0            0.194444     0
C1       C     0.6875       0            0.263889     0
C2       C     0.71875      0            0.305556     0
C3       C     0.6875       0            0.319444     0
C4       C     0.71875      0            0.277778     0
C1       C     0.6875       0            0.347222     0
C2       C     0.71875      0            0.388889     0
C3       C     0.6875       0            0.402778     0
C4       C     0.71875      0            0.361111     0
C1       C     0.6875       0            0.430556     0
C2       C     0.71875      0            0.472223     0
C3       C     0.6875       0            0.486111     0
C4       C     0.71875      0            0.444444     0
C1       C     0.6875       0            0.513889     0
C2       C     0.71875      0            0.555556     0
C3       C     0.6875       0            0.569444     0
C4       C     0.71875      0            0.527778     0
C1       C     0.6875       0            0.597222     0
C2       C     0.71875      0            0.638889     0
C3       C     0.6875       0            0.652778     0
C4       C     0.71875      0            0.611111     0
C1       C     0.6875       0            0.680556     0
C2       C     0.71875      0            0.722222     0
C3       C     0.6875       0            0.736111     0
C4       C     0.71875      0            0.694444     0
C1       C     0.6875       0            0.763889     0
C2       C     0.71875      0            0.805556     0
C3       C     0.6875       0            0.819444     0
C4       C     0.71875      0            0.777778     0
C1       C     0.6875       0            0.847222     0
C2       C     0.71875      0            0.888889     0
C3       C     0.6875       0            0.902778     0
C4       C     0.71875      0            0.861111     0
C1       C     0.6875       0            0.930556     0
C2       C     0.71875      0            0.972222     0
C3       C     0.6875       0            0.986111     0
C4       C     0.71875      0            0.944444     0
C1       C     0.6875       0.333333     0.0138892    0
C2       C     0.71875      0.333333     0.0555558    0
C3       C     0.6875       0.333333     0.0694442    0
C4       C     0.71875      0.333333     0.0277775    0
C1       C     0.6875       0.333333     0.0972225    0
C2       C     0.71875      0.333333     0.138889     0
C3       C     0.6875       0.333333     0.152778     0
C4       C     0.71875      0.333333     0.111111     0
C1       C     0.6875       0.333333     0.180556     0
C2       C     0.71875      0.333333     0.222222     0
C3       C     0.6875       0.333333     0.236111     0
C4       C     0.71875      0.333333     0.194444     0
C1       C     0.6875       0.333333     0.263889     0
C2       C     0.71875      0.333333     0.305556     0
C3       C     0.6875       0.333333     0.319444     0
C4       C     0.71875      0.333333     0.277778     0
C1       C     0.6875       0.333333     0.347222     0
C2       C     0.71875      0.333333     0.388889     0
C3       C     0.6875       0.333333     0.402778     0
C4       C     0.71875      0.333333     0.361111     0
C1       C     0.6875       0.333333     0.430556     0
C2       C     0.71875      0.333333     0.472223     0
C3       C     0.6875       0.333333     0.486111     0
C4       C     0.71875      0.333333     0.444444     0
C1       C     0.6875       0.333333     0.513889     0
C2       C     0.71875      0.333333     0.555556     0
C3       C     0.6875       0.333333     0.569444     0
C4       C     0.71875      0.333333     0.527778     0
C1       C     0.6875       0.333333     0.597222     0
C2       C     0.71875      0.333333     0.638889     0
C3       C     0.6875       0.333333     0.652778     0
C4       C     0.71875      0.333333     0.611111     0
C1       C     0.6875       0.333333     0.680556     0
C2       C     0.71875      0.333333     0.722222     0
C3       C     0.6875       0.333333     0.736111     0
C4       C     0.71875      0.333333     0.694444     0
C1       C     0.6875       0.333333     0.763889     0
C2       C     0.71875      0.333333     0.805556     0
C3       C     0.6875       0.333333     0.819444     0
C4       C     0.71875      0.333333     0.777778     0
C1       C     0.6875       0.333333     0.847222     0
C2       C     0.71875      0.333333     0.888889     0
C3       C     0.6875       0.333333     0.902778     0
C4       C     0.71875      0.333333     0.861111     0
C1       C     0.6875       0.333333     0.930556     0
C2       C     0.71875      0.333333     0.972222     0
C3       C     0.6875       0.333333     0.986111     0
C4       C     0.71875      0.333333     0.944444     0
C1       C     0.6875       0.666667     0.0138892    0
C2       C     0.71875      0.666667     0.0555558    0
C3       C     0.6875       0.666667     0.0694442    0
C4       C     0.71875      0.666667     0.0277775    0
C1       C     0.6875       0.666667     0.0972225    0
C2       C     0.71875      0.666667     0.138889     0
C3       C     0.6875       0.666667     0.152778     0
C4       C     0.71875      0.666667     0.111111     0
C1       C     0.6875       0.666667     0.180556     0
C2       C     0.71875      0.666667     0.222222     0
C3       C     0.6875       0.666667     0.236111     0
C4       C     0.71875      0.666667     0.194444     0
C1       C     0.6875       0.666667     0.263889     0
C2       C     0.71875      0.666667     0.305556     0
C3       C     0.6875       0.666667     0.319444     0
C4       C     0.71875      0.666667     0.277778     0
C1       C     0.6875       0.666667     0.347222     0
C2       C     0.71875      0.666667     0.388889     0
C3       C     0.6875       0.666667     0.402778     0
C4       C     0.71875      0.666667     0.361111     0
C1       C     0.6875       0.666667     0.430556     0
C2       C     0.71875      0.666667     0.472223     0
C3       C     0.6875       0.666667     0.486111     0
C4       C     0.71875      0.666667     0.444444     0
C1       C     0.6875       0.666667     0.513889     0
C2       C     0.71875      0.666667     0.555556     0
C3       C     0.6875       0.666667     0.569444     0
C4       C     0.71875      0.666667     0.527778     0
C1       C     0.6875       0.666667     0.597222     0
C2       C     0.71875      0.666667     0.638889     0
C3       C     0.6875       0.666667     0.652778     0
C4       C     0.71875      0.666667     0.611111     0
C1       C     0.6875       0.666667     0.680556     0
C2       C     0.71875      0.666667     0.722222     0
C3       C     0.6875       0.666667     0.736111     0
C4       C     0.71875      0.666667     0.694444     0
C1       C     0.6875       0.666667     0.763889     0
C2       C     0.71875      0.666667     0.805556     0
C3       C     0.6875       0.666667     0.819444     0
C4       C     0.71875      0.666667     0.777778     0
C1       C     0.6875       0.666667     0.847222     0
C2       C     0.71875      0.666667     0.888889     0
C3       C     0.6875       0.666667     0.902778     0
C4       C     0.71875      0.666667     0.861111     0
C1       C     0.6875       0.666667     0.930556     0
C2       C     0.71875      0.666667     0.972222     0
C3       C     0.6875       0.666667     0.986111     0
C4       C     0.71875      0.666667     0.944444     0
C1       C     0.75         0            0.0138892    0
C2       C     0.78125      0            0.0555558    0
C3       C     0.75         0            0.0694442    0
C4       C     0.78125      0            0.0277775    0
C1       C     0.75         0            0.0972225    0
C2       C     0.78125      0            0.138889     0
C3       C     0.75         0            0.152778     0
C4       C     0.78125      0            0.111111     0
C1       C     0.75         0            0.180556     0
C2       C     0.78125      0            0.222222     0
C3       C     0.75         0            0.236111     0
C4       C     0.78125      0            0.194444     0
C1       C     0.75         0            0.263889     0
C2       C     0.78125      0            0.305556     0
C3       C     0.75         0            0.319444     0
C4       C     0.78125      0            0.277778     0
C1       C     0.75         0            0.347222     0
C2       C     0.78125      0            0.388889     0
C3       C     0.75         0            0.402778     0
C4       C     0.78125      0            0.361111     0
C1       C     0.75         0            0.430556     0
C2       C     0.78125      0            0.472223     0
C3       C     0.75         0            0.486111     0
C4       C     0.78125      0            0.444444     0
C1       C     0.75         0            0.513889     0
C2       C     0.78125      0            0.555556     0
C3       C     0.75         0            0.569444     0
C4       C     0.78125      0            0.527778     0
C1       C     0.75         0            0.597222     0
C2       C     0.78125      0            0.638889     0
C3       C     0.75         0            0.652778     0
C4       C     0.78125      0            0.611111     0
C1       C     0.75         0            0.680556     0
C2       C     0.78125      0            0.722222     0
C3       C     0.75         0            0.736111     0
C4       C     0.78125      0            0.694444     0
C1       C     0.75         0            0.763889     0
C2       C     0.78125      0            0.805556     0
C3       C     0.75         0            0.819444     0
C4       C     0.78125      0            0.777778     0
C1       C     0.75         0            0.847222     0
C2       C     0.78125      0            0.888889     0
C3       C     0.75         0            0.902778     0
C4       C     0.78125      0            0.861111     0
C1       C     0.75         0            0.930556     0
C2       C     0.78125      0            0.972222     0
C3       C     0.75         0            0.986111     0
C4       C     0.78125      0            0.944444     0
C1       C     0.75         0.333333     0.0138892    0
C2       C     0.78125      0.333333     0.0555558    0
C3       C     0.75         0.333333     0.0694442    0
C4       C     0.78125      0.333333     0.0277775    0
C1       C     0.75         0.333333     0.0972225    0
C2       C     0.78125      0.333333     0.138889     0
C3       C     0.75         0.333333     0.152778     0
C4       C     0.78125      0.333333     0.111111     0
C1       C     0.75         0.333333     0.180556     0
C2       C     0.78125      0.333333     0.222222     0
C3       C     0.75         0.333333     0.236111     0
C4       C     0.78125      0.333333     0.194444     0
C1       C     0.75         0.333333     0.263889     0
C2       C     0.78125      0.333333     0.305556     0
C3       C     0.75         0.333333     0.319444     0
C4       C     0.78125      0.333333     0.277778     0
C1       C     0.75         0.333333     0.347222     0
C2       C     0.78125      0.333333     0.388889     0
C3       C     0.75         0.333333     0.402778     0
C4       C     0.78125      0.333333     0.361111     0
C1       C     0.75         0.333333     0.430556     0
C2       C     0.78125      0.333333     0.472223     0
C3       C     0.75         0.333333     0.486111     0
C4       C     0.78125      0.333333     0.444444     0
C1       C     0.75         0.333333     0.513889     0
C2       C     0.78125      0.333333     0.555556     0
C3       C     0.75         0.333333     0.569444     0
C4       C     0.78125      0.333333     0.527778     0
C1       C     0.75         0.333333     0.597222     0
C2       C     0.78125      0.333333     0.638889     0
C3       C     0.75         0.333333     0.652778     0
C4       C     0.78125      0.333333     0.611111     0
C1       C     0.75         0.333333     0.680556     0
C2       C     0.78125      0.333333     0.722222     0
C3       C     0.75         0.333333     0.736111     0
C4       C     0.78125      0.333333     0.694444     0
C1       C     0.75         0.333333     0.763889     0
C2       C     0.78125      0.333333     0.805556     0
C3       C     0.75         0.333333     0.819444     0
C4       C     0.78125      0.333333     0.777778     0
C1       C     0.75         0.333333     0.847222     0
C2       C     0.78125      0.333333     0.888889     0
C3       C     0.75         0.333333     0.902778     0
C4       C     0.78125      0.333333     0.861111     0
C1       C     0.75         0.333333     0.930556     0
C2       C     0.78125      0.333333     0.972222     0
C3       C     0.75         0.333333     0.986111     0
C4       C     0.78125      0.333333     0.944444     0
C1       C     0.75         0.666667     0.0138892    0
C2       C     0.78125      0.666667     0.0555558    0
C3       C     0.75         0.666667     0.0694442    0
C4       C     0.78125      0.666667     0.0277775    0
C1       C     0.75         0.666667     0.0972225    0
C2       C     0.78125      0.666667     0.138889     0
C3       C     0.75         0.666667     0.152778     0
C4       C     0.78125      0.666667     0.111111     0
C1       C     0.75         0.666667     0.180556     0
C2       C     0.78125      0.666667     0.222222     0
C3       C     0.75         0.666667     0.236111     0
C4       C     0.78125      0.666667     0.194444     0
C1       C     0.75         0.666667     0.263889     0
C2       C     0.78125      0.666667     0.305556     0
C3       C     0.75         0.666667     0.319444     0
C4       C     0.78125      0.666667     0.277778     0
C1       C     0.75         0.666667     0.347222     0
C2       C     0.78125      0.666667     0.388889     0
C3       C     0.75         0.666667     0.402778     0
C4       C     0.78125      0.666667     0.361111     0
C1       C     0.75         0.666667     0.430556     0
C2       C     0.78125      0.666667     0.472223     0
C3       C     0.75         0.666667     0.486111     0
C4       C     0.78125      0.666667     0.444444     0
C1       C     0.75         0.666667     0.513889     0
C2       C     0.78125      0.666667     0.555556     0
C3       C     0.75         0.666667     0.569444     0
C4       C     0.78125      0.666667     0.527778     0
C1       C     0.75         0.666667     0.597222     0
C2       C     0.78125      0.666667     0.638889     0
C3       C     0.75         0.666667     0.652778     0
C4       C     0.78125      0.666667     0.611111     0
C1       C     0.75         0.666667     0.680556     0
C2       C     0.78125      0.666667     0.722222     0
C3       C     0.75         0.666667     0.736111     0
C4       C     0.78125      0.666667     0.694444     0
C1       C     0.75         0.666667     0.763889     0
C2       C     0.78125      0.666667     0.805556     0
C3       C     0.75         0.666667     0.819444     0
C4       C     0.78125      0.666667     0.777778     0
C1       C     0.75         0.666667     0.847222     0
C2       C     0.78125      0.666667     0.888889     0
C3       C     0.75         0.666667     0.902778     0
C4       C     0.78125      0.666667     0.861111     0
C1       C     0.75         0.666667     0.930556     0
C2       C     0.78125      0.666667     0.972222     0
C3       C     0.75         0.666667     0.986111     0
C4       C     0.78125      0.666667     0.944444     0
C1       C     0.8125       0            0.0138892    0
C2       C     0.84375      0            0.0555558    0
C3       C     0.8125       0            0.0694442    0
C4       C     0.84375      0            0.0277775    0
C1       C     0.8125       0            0.0972225    0
C2       C     0.84375      0            0.138889     0
C3       C     0.8125       0            0.152778     0
C4       C     0.84375      0            0.111111     0
C1       C     0.8125       0            0.180556     0
C2       C     0.84375      0            0.222222     0
C3       C     0.8125       0            0.236111     0
C4       C     0.84375      0            0.194444     0
C1       C     0.8125       0            0.263889     0
C2       C     0.84375      0            0.305556     0
C3       C     0.8125       0            0.319444     0
C4       C     0.84375      0            0.277778     0
C1       C     0.8125       0            0.347222     0
C2       C     0.84375      0            0.388889     0
C3       C     0.8125       0            0.402778     0
C4       C     0.84375      0            0.361111     0
C1       C     0.8125       0            0.430556     0
C2       C     0.84375      0            0.472223     0
C3       C     0.8125       0            0.486111     0
C4       C     0.84375      0            0.444444     0
C1       C     0.8125       0            0.513889     0
C2       C     0.84375      0            0.555556     0
C3       C     0.8125       0            0.569444     0
C4       C     0.84375      0            0.527778     0
C1       C     0.8125       0            0.597222     0
C2       C     0.84375      0            0.638889     0
C3       C     0.8125       0            0.652778     0
C4       C     0.84375      0            0.611111     0
C1       C     0.8125       0            0.680556     0
C2       C     0.84375      0            0.722222     0
C3       C     0.8125       0            0.736111     0
C4       C     0.84375      0            0.694444     0
C1       C     0.8125       0            0.763889     0
C2       C     0.84375      0            0.805556     0
C3       C     0.8125       0            0.819444     0
C4       C     0.84375      0            0.777778     0
C1       C     0.8125       0            0.847222     0
C2       C     0.84375      0            0.888889     0
C3       C     0.8125       0            0.902778     0
C4       C     0.84375      0            0.861111     0
C1       C     0.8125       0            0.930556     0
C2       C     0.84375      0            0.972222     0
C3       C     0.8125       0            0.986111     0
C4       C     0.84375      0            0.944444     0
C1       C     0.8125       0.333333     0.0138892    0
C2       C     0.84375      0.333333     0.0555558    0
C3       C     0.8125       0.333333     0.0694442    0
C4       C     0.84375      0.333333     0.0277775    0
C1       C     0.8125       0.333333     0.0972225    0
C2       C     0.84375      0.333333     0.138889     0
C3       C     0.8125       0.333333     0.152778     0
C4       C     0.84375      0.333333     0.111111     0
C1       C     0.8125       0.333333     0.180556     0
C2       C     0.84375      0.333333     0.222222     0
C3       C     0.8125       0.333333     0.236111     0
C4       C     0.84375      0.333333     0.194444     0
C1       C     0.8125       0.333333     0.263889     0
C2       C     0.84375      0.333333     0.305556     0
C3       C     0.8125       0.333333     0.319444     0
C4       C     0.84375      0.333333     0.277778     0
C1       C     0.8125       0.333333     0.347222     0
C2       C     0.84375      0.333333     0.388889     0
C3       C     0.8125       0.333333     0.402778     0
C4       C     0.84375      0.333333     0.361111     0
C1       C     0.8125       0.333333     0.430556     0
C2       C     0.84375      0.333333     0.472223     0
C3       C     0.8125       0.333333     0.486111     0
C4       C     0.84375      0.333333     0.444444     0
C1       C     0.8125       0.333333     0.513889     0
C2       C     0.84375      0.333333     0.555556     0
C3       C     0.8125       0.333333     0.569444     0
C4       C     0.84375      0.333333     0.527778     0
C1       C     0.8125       0.333333     0.597222     0
C2       C     0.84375      0.333333     0.638889     0
C3       C     0.8125       0.333333     0.652778     0
C4       C     0.84375      0.333333     0.611111     0
C1       C     0.8125       0.333333     0.680556     0
C2       C     0.84375      0.333333     0.722222     0
C3       C     0.8125       0.333333     0.736111     0
C4       C     0.84375      0.333333     0.694444     0
C1       C     0.8125       0.333333     0.763889     0
C2       C     0.84375      0.333333     0.805556     0
C3       C     0.8125       0.333333     0.819444     0
C4       C     0.84375      0.333333     0.777778     0
C1       C     0.8125       0.333333     0.847222     0
C2       C     0.84375      0.333333     0.888889     0
C3       C     0.8125       0.333333     0.902778     0
C4       C     0.84375      0.333333     0.861111     0
C1       C     0.8125       0.333333     0.930556     0
C2       C     0.84375      0.333333     0.972222     0
C3       C     0.8125       0.333333     0.986111     0
C4       C     0.84375      0.333333     0.944444     0
C1       C     0.8125       0.666667     0.0138892    0
C2       C     0.84375      0.666667     0.0555558    0
C3       C     0.8125       0.666667     0.0694442    0
C4       C     0.84375      0.666667     0.0277775    0
C1       C     0.8125       0.666667     0.0972225    0
C2       C     0.84375      0.666667     0.138889     0
C3       C     0.8125       0.666667     0.152778     0
C4       C     0.84375      0.666667     0.111111     0
C1       C     0.8125       0.666667     0.180556     0
C2       C     0.84375      0.666667     0.222222     0
C3       C     0.8125       0.666667     0.236111     0
C4       C     0.84375      0.666667     0.194444     0
C1       C     0.8125       0.666667     0.263889     0
C2       C     0.84375      0.666667     0.305556     0
C3       C     0.8125       0.666667     0.319444     0
C4       C     0.84375      0.666667     0.277778     0
C1       C     0.8125       0.666667     0.347222     0
C2       C     0.84375      0.666667     0.388889     0
C3       C     0.8125       0.666667     0.402778     0
C4       C     0.84375      0.666667     0.361111     0
C1       C     0.8125       0.666667     0.430556     0
C2       C     0.84375      0.666667     0.472223     0
C3       C     0.8125       0.666667     0.486111     0
C4       C     0.84375      0.666667     0.444444     0
C1       C     0.8125       0.666667     0.513889     0
C2       C     0.84375      0.666667     0.555556     0
C3       C     0.8125       0.666667     0.569444     0
C4       C     0.84375      0.666667     0.527778     0
C1       C     0.8125       0.666667     0.597222     0
C2       C     0.84375      0.666667     0.638889     0
C3       C     0.8125       0.666667     0.652778     0
C4       C     0.84375      0.666667     0.611111     0
C1       C     0.8125       0.666667     0.680556     0
C2       C     0.84375      0.666667     0.722222     0
C3       C     0.8125       0.666667     0.736111     0
C4       C     0.84375      0.666667     0.694444     0
C1       C     0.8125       0.666667     0.763889     0
C2       C     0.84375      0.666667     0.805556     0
C3       C     0.8125       0.666667     0.819444     0
C4       C     0.84375      0.666667     0.777778     0
C1       C     0.8125       0.666667     0.847222     0
C2       C     0.84375      0.666667     0.888889     0
C3       C     0.8125       0.666667     0.902778     0
C4       C     0.84375      0.666667     0.861111     0
C1       C     0.8125       0.666667     0.930556     0
C2       C     0.84375      0.666667     0.972222     0
C3       C     0.8125       0.666667     0.986111     0
C4       C     0.84375      0.666667     0.944444     0
C1       C     0.875        0            0.0138892    0
C2       C     0.90625      0            0.0555558    0
C3       C     0.875        0            0.0694442    0
C4       C     0.90625      0            0.0277775    0
C1       C     0.875        0            0.0972225    0
C2       C     0.90625      0            0.138889     0
C3       C     0.875        0            0.152778     0
C4       C     0.90625      0            0.111111     0
C1       C     0.875        0            0.180556     0
C2       C     0.90625      0            0.222222     0
C3       C     0.875        0            0.236111     0
C4       C     0.90625      0            0.194444     0
C1       C     0.875        0            0.263889     0
C2       C     0.90625      0            0.305556     0
C3       C     0.875        0            0.319444     0
C4       C     0.90625      0            0.277778     0
C1       C     0.875        0            0.347222     0
C2       C     0.90625      0            0.388889     0
C3       C     0.875        0            0.402778     0
C4       C     0.90625      0            0.361111     0
C1       C     0.875        0            0.430556     0
C2       C     0.90625      0            0.472223     0
C3       C     0.875        0            0.486111     0
C4       C     0.90625      0            0.444444     0
C1       C     0.875        0            0.513889     0
C2       C     0.90625      0            0.555556     0
C3       C     0.875        0            0.569444     0
C4       C     0.90625      0            0.527778     0
C1       C     0.875        0            0.597222     0
C2       C     0.90625      0            0.638889     0
C3       C     0.875        0            0.652778     0
C4       C     0.90625      0            0.611111     0
C1       C     0.875        0            0.680556     0
C2       C     0.90625      0            0.722222     0
C3       C     0.875        0            0.736111     0
C4       C     0.90625      0            0.694444     0
C1       C     0.875        0            0.763889     0
C2       C     0.90625      0            0.805556     0
C3       C     0.875        0            0.819444     0
C4       C     0.90625      0            0.777778     0
C1       C     0.875        0            0.847222     0
C2       C     0.90625      0            0.888889     0
C3       C     0.875        0            0.902778     0
C4       C     0.90625      0            0.861111     0
C1       C     0.875        0            0.930556     0
C2       C     0.90625      0            0.972222     0
C3       C     0.875        0            0.986111     0
C4       C     0.90625      0            0.944444     0
C1       C     0.875        0.333333     0.0138892    0
C2       C     0.90625      0.333333     0.0555558    0
C3       C     0.875        0.333333     0.0694442    0
C4       C     0.90625      0.333333     0.0277775    0
C1       C     0.875        0.333333     0.0972225    0
C2       C     0.90625      0.333333     0.138889     0
C3       C     0.875        0.333333     0.152778     0
C4       C     0.90625      0.333333     0.111111     0
C1       C     0.875        0.333333     0.180556     0
C2       C     0.90625      0.333333     0.222222     0
C3       C     0.875        0.333333     0.236111     0
C4       C     0.90625      0.333333     0.194444     0
C1       C     0.875        0.333333     0.263889     0
C2       C     0.90625      0.333333     0.305556     0
C3       C     0.875        0.333333     0.319444     0
C4       C     0.90625      0.333333     0.277778     0
C1       C     0.875        0.333333     0.347222     0
C2       C     0.90625      0.333333     0.388889     0
C3       C     0.875        0.333333     0.402778     0
C4       C     0.90625      0.333333     0.361111     0
C1       C     0.875        0.333333     0.430556     0
C2       C     0.90625      0.333333     0.472223     0
C3       C     0.875        0.333333     0.486111     0
C4       C     0.90625      0.333333     0.444444     0
C1       C     0.875        0.333333     0.513889     0
C2       C     0.90625      0.333333     0.555556     0
C3       C     0.875        0.333333     0.569444     0
C4       C     0.90625      0.333333     0.527778     0
C1       C     0.875        0.333333     0.597222     0
C2       C     0.90625      0.333333     0.638889     0
C3       C     0.875        0.333333     0.652778     0
C4       C     0.90625      0.333333     0.611111     0
C1       C     0.875        0.333333     0.680556     0
C2       C     0.90625      0.333333     0.722222     0
C3       C     0.875        0.333333     0.736111     0
C4       C     0.90625      0.333333     0.694444     0
C1       C     0.875        0.333333     0.763889     0
C2       C     0.90625      0.333333     0.805556     0
C3       C     0.875        0.333333     0.819444     0
C4       C     0.90625      0.333333     0.777778     0
C1       C     0.875        0.333333     0.847222     0
C2       C     0.90625      0.333333     0.888889     0
C3       C     0.875        0.333333     0.902778     0
C4       C     0.90625      0.333333     0.861111     0
C1       C     0.875        0.333333     0.930556     0
C2       C     0.90625      0.333333     0.972222     0
C3       C     0.875        0.333333     0.986111     0
C4       C     0.90625      0.333333     0.944444     0
C1       C     0.875        0.666667     0.0138892    0
C2       C     0.90625      0.666667     0.0555558    0
C3       C     0.875        0.666667     0.0694442    0
C4       C     0.90625      0.666667     0.0277775    0
C1       C     0.875        0.666667     0.0972225    0
C2       C     0.90625      0.666667     0.138889     0
C3       C     0.875        0.666667     0.152778     0
C4       C     0.90625      0.666667     0.111111     0
C1       C     0.875        0.666667     0.180556     0
C2       C     0.90625      0.666667     0.222222     0
C3       C     0.875        0.666667     0.236111     0
C4       C     0.90625      0.666667     0.194444     0
C1       C     0.875        0.666667     0.263889     0
C2       C     0.90625      0.666667     0.305556     0
C3       C     0.875        0.666667     0.319444     0
C4       C     0.90625      0.666667     0.277778     0
C1       C     0.875        0.666667     0.347222     0
C2       C     0.90625      0.666667     0.388889     0
C3       C     0.875        0.666667     0.402778     0
C4       C     0.90625      0.666667     0.361111     0
C1       C     0.875        0.666667     0.430556     0
C2       C     0.90625      0.666667     0.472223     0
C3       C     0.875        0.666667     0.486111     0
C4       C     0.90625      0.666667     0.444444     0
C1       C     0.875        0.666667     0.513889     0
C2       C     0.90625      0.666667     0.555556     0
C3       C     0.875        0.666667     0.569444     0
C4       C     0.90625      0.666667     0.527778     0
C1       C     0.875        0.666667     0.597222     0
C2       C     0.90625      0.666667     0.638889     0
C3       C     0.875        0.666667     0.652778     0
C4       C     0.90625      0.666667     0.611111     0
C1       C     0.875        0.666667     0.680556     0
C2       C     0.90625      0.666667     0.722222     0
C3       C     0.875        0.666667     0.736111     0
C4       C     0.90625      0.666667     0.694444     0
C1       C     0.875        0.666667     0.763889     0
C2       C     0.90625      0.666667     0.805556     0
C3       C     0.875        0.666667     0.819444     0
C4       C     0.90625      0.666667     0.777778     0
C1       C     0.875        0.666667     0.847222     0
C2       C     0.90625      0.666667     0.888889     0
C3       C     0.875        0.666667     0.902778     0
C4       C     0.90625      0.666667     0.861111     0
C1       C     0.875        0.666667     0.930556     0
C2       C     0.90625      0.666667     0.972222     0
C3       C     0.875        0.666667     0.986111     0
C4       C     0.90625      0.666667     0.944444     0
C1       C     0.9375       0            0.0138892    0
C2       C     0.96875      0            0.0555558    0
C3       C     0.9375       0            0.0694442    0
C4       C     0.96875      0            0.0277775    0
C1       C     0.9375       0            0.0972225    0
C2       C     0.96875      0            0.138889     0
C3       C     0.9375       0            0.152778     0
C4       C     0.96875      0            0.111111     0
C1       C     0.9375       0            0.180556     0
C2       C     0.96875      0            0.222222     0
C3       C     0.9375       0            0.236111     0
C4       C     0.96875      0            0.194444     0
C1       C     0.9375       0            0.263889     0
C2       C     0.96875      0            0.305556     0
C3       C     0.9375       0            0.319444     0
C4       C     0.96875      0            0.277778     0
C1       C     0.9375       0            0.347222     0
C2       C     0.96875      0            0.388889     0
C3       C     0.9375       0            0.402778     0
C4       C     0.96875      0            0.361111     0
C1       C     0.9375       0            0.430556     0
C2       C     0.96875      0            0.472223     0
C3       C     0.9375       0            0.486111     0
C4       C     0.96875      0            0.444444     0
C1       C     0.9375       0            0.513889     0
C2       C     0.96875      0            0.555556     0
C3       C     0.9375       0            0.569444     0
C4       C     0.96875      0            0.527778     0
C1       C     0.9375       0            0.597222     0
C2       C     0.96875      0            0.638889     0
C3       C     0.9375       0            0.652778     0
C4       C     0.96875      0            0.611111     0
C1       C     0.9375       0            0.680556     0
C2       C     0.96875      0            0.722222     0
C3       C     0.9375       0            0.736111     0
C4       C     0.96875      0            0.694444     0
C1       C     0.9375       0            0.763889     0
C2       C     0.96875      0            0.805556     0
C3       C     0.9375       0            0.819444     0
C4       C     0.96875      0            0.777778     0
C1       C     0.9375       0            0.847222     0
C2       C     0.96875      0            0.888889     0
C3       C     0.9375       0            0.902778     0
C4       C     0.96875      0            0.861111     0
C1       C     0.9375       0            0.930556     0
C2       C     0.96875      0            0.972222     0
C3       C     0.9375       0            0.986111     0
C4       C     0.96875      0            0.944444     0
C1       C     0.9375       0.333333     0.0138892    0
C2       C     0.96875      0.333333     0.0555558    0
C3       C     0.9375       0.333333     0.0694442    0
C4       C     0.96875      0.333333     0.0277775    0
C1       C     0.9375       0.333333     0.0972225    0
C2       C     0.96875      0.333333     0.138889     0
C3       C     0.9375       0.333333     0.152778     0
C4       C     0.96875      0.333333     0.111111     0
C1       C     0.9375       0.333333     0.180556     0
C2       C     0.96875      0.333333     0.222222     0
C3       C     0.9375       0.333333     0.236111     0
C4       C     0.96875      0.333333     0.194444     0
C1       C     0.9375       0.333333     0.263889     0
C2       C     0.96875      0.333333     0.305556     0
C3       C     0.9375       0.333333     0.319444     0
C4       C     0.96875      0.333333     0.277778     0
C1       C     0.9375       0.333333     0.347222     0
C2       C     0.96875      0.333333     0.388889     0
C3       C     0.9375       0.333333     0.402778     0
C4       C     0.96875      0.333333     0.361111     0
C1       C     0.9375       0.333333     0.430556     0
C2       C     0.96875      0.333333     0.472223     0
C3       C     0.9375       0.333333     0.486111     0
C4       C     0.96875      0.333333     0.444444     0
C1       C     0.9375       0.333333     0.513889     0
C2       C     0.96875      0.333333     0.555556     0
C3       C     0.9375       0.333333     0.569444     0
C4       C     0.96875      0.333333     0.527778     0
C1       C     0.9375       0.333333     0.597222     0
C2       C     0.96875      0.333333     0.638889     0
C3       C     0.9375       0.333333     0.652778     0
C4       C     0.96875      0.333333     0.611111     0
C1       C     0.9375       0.333333     0.680556     0
C2       C     0.96875      0.333333     0.722222     0
C3       C     0.9375       0.333333     0.736111     0
C4       C     0.96875      0.333333     0.694444     0
C1       C     0.9375       0.333333     0.763889     0
C2       C     0.96875      0.333333     0.805556     0
C3       C     0.9375       0.333333     0.819444     0
C4       C     0.96875      0.333333     0.777778     0
C1       C     0.9375       0.333333     0.847222     0
C2       C     0.96875      0.333333     0.888889     0
C3       C     0.9375       0.333333     0.902778     0
C4       C     0.96875      0.333333     0.861111     0
C1       C     0.9375       0.333333     0.930556     0
C2       C     0.96875      0.333333     0.972222     0
C3       C     0.9375       0.333333     0.986111     0
C4       C     0.96875      0.333333     0.944444     0
C1       C     0.9375       0.666667     0.0138892    0
C2       C     0.96875      0.666667     0.0555558    0
C3       C     0.9375       0.666667     0.0694442    0
C4       C     0.96875      0.666667     0.0277775    0
C1       C     0.9375       0.666667     0.0972225    0
C2       C     0.96875      0.666667     0.138889     0
C3       C     0.9375       0.666667     0.152778     0
C4       C     0.96875      0.666667     0.111111     0
C1       C     0.9375       0.666667     0.180556     0
C2       C     0.96875      0.666667     0.222222     0
C3       C     0.9375       0.666667     0.236111     0
C4       C     0.96875      0.666667     0.194444     0
C1       C     0.9375       0.666667     0.263889     0
C2       C     0.96875      0.666667     0.305556     0
C3       C     0.9375       0.666667     0.319444     0
C4       C     0.96875      0.666667     0.277778     0
C1       C     0.9375       0.666667     0.347222     0
C2       C     0.96875      0.666667     0.388889     0
C3       C     0.9375       0.666667     0.402778     0
C4       C     0.96875      0.666667     0.361111     0
C1       C     0.9375       0.666667     0.430556     0
C2       C     0.96875      0.666667     0.472223     0
C3       C     0.9375       0.666667     0.486111     0
C4       C     0.96875      0.666667     0.444444     0
C1       C     0.9375       0.666667     0.513889     0
C2       C     0.96875      0.666667     0.555556     0
C3       C     0.9375       0.666667     0.569444     0
C4       C     0.96875      0.666667     0.527778     0
C1       C     0.9375       0.666667     0.597222     0
C2       C     0.96875      0.666667     0.638889     0
C3       C     0.9375       0.666667     0.652778     0
C4       C     0.96875      0.666667     0.611111     0
C1       C     0.9375       0.666667     0.680556     0
C2       C     0.96875      0.666667     0.722222     0
C3       C     0.9375       0.666667     0.736111     0
C4       C     0.96875      0.666667     0.694444     0
C1       C     0.9375       0.666667     0.763889     0
C2       C     0.96875      0.666667     0.805556     0
C3       C     0.9375       0.666667     0.819444     0
C4       C     0.96875      0.666667     0.777778     0
C1       C     0.9375       0.666667     0.847222     0
C2       C     0.96875      0.666667     0.888889     0
C3       C     0.9375       0.666667     0.902778     0
C4       C     0.96875      0.666667     0.861111     0
C1       C     0.9375       0.666667     0.930556     0
C2       C     0.96875      0.666667     0.972222     0
C3       C     0.9375       0.666667     0.986111     0
C4       C     0.96875      0.666667     0.944444     0


