data_graphite_ortho

_audit_creation_method RASPA-1.0
_audit_creation_date 2012-2-3
_audit_author_name 'David Dubbeldam'

_cell_length_a    39.36
_cell_length_b    25.56
_cell_length_c    25.56
_cell_angle_alpha 90
_cell_angle_beta  90
_cell_angle_gamma 90
_cell_volume      25714.4

_symmetry_cell_setting          triclinic
_symmetry_space_group_name_Hall 'P 1'
_symmetry_space_group_name_H-M  'P 1'
_symmetry_Int_Tables_number     1

_symmetry_equiv_pos_as_xyz 'x,y,z'

loop_
_atom_site_label
_atom_site_type_symbol
_atom_site_fract_x
_atom_site_fract_y
_atom_site_fract_z
_atom_site_charge
C1       C     0            0.0277783    0            0
C2       C     0.03125      0.111112     0            0
C3       C     0            0.138888     0            0
C4       C     0.03125      0.055555     0            0
C1       C     0            0.0277783    0.333333     0
C2       C     0.03125      0.111112     0.333333     0
C3       C     0            0.138888     0.333333     0
C4       C     0.03125      0.055555     0.333333     0
C1       C     0            0.0277783    0.666667     0
C2       C     0.03125      0.111112     0.666667     0
C3       C     0            0.138888     0.666667     0
C4       C     0.03125      0.055555     0.666667     0
C1       C     0            0.194445     0            0
C2       C     0.03125      0.277778     0            0
C3       C     0            0.305555     0            0
C4       C     0.03125      0.222222     0            0
C1       C     0            0.194445     0.333333     0
C2       C     0.03125      0.277778     0.333333     0
C3       C     0            0.305555     0.333333     0
C4       C     0.03125      0.222222     0.333333     0
C1       C     0            0.194445     0.666667     0
C2       C     0.03125      0.277778     0.666667     0
C3       C     0            0.305555     0.666667     0
C4       C     0.03125      0.222222     0.666667     0
C1       C     0            0.361112     0            0
C2       C     0.03125      0.444445     0            0
C3       C     0            0.472222     0            0
C4       C     0.03125      0.388888     0            0
C1       C     0            0.361112     0.333333     0
C2       C     0.03125      0.444445     0.333333     0
C3       C     0            0.472222     0.333333     0
C4       C     0.03125      0.388888     0.333333     0
C1       C     0            0.361112     0.666667     0
C2       C     0.03125      0.444445     0.666667     0
C3       C     0            0.472222     0.666667     0
C4       C     0.03125      0.388888     0.666667     0
C1       C     0            0.527778     0            0
C2       C     0.03125      0.611112     0            0
C3       C     0            0.638888     0            0
C4       C     0.03125      0.555555     0            0
C1       C     0            0.527778     0.333333     0
C2       C     0.03125      0.611112     0.333333     0
C3       C     0            0.638888     0.333333     0
C4       C     0.03125      0.555555     0.333333     0
C1       C     0            0.527778     0.666667     0
C2       C     0.03125      0.611112     0.666667     0
C3       C     0            0.638888     0.666667     0
C4       C     0.03125      0.555555     0.666667     0
C1       C     0            0.694445     0            0
C2       C     0.03125      0.777778     0            0
C3       C     0            0.805555     0            0
C4       C     0.03125      0.722222     0            0
C1       C     0            0.694445     0.333333     0
C2       C     0.03125      0.777778     0.333333     0
C3       C     0            0.805555     0.333333     0
C4       C     0.03125      0.722222     0.333333     0
C1       C     0            0.694445     0.666667     0
C2       C     0.03125      0.777778     0.666667     0
C3       C     0            0.805555     0.666667     0
C4       C     0.03125      0.722222     0.666667     0
C1       C     0            0.861112     0            0
C2       C     0.03125      0.944445     0            0
C3       C     0            0.972222     0            0
C4       C     0.03125      0.888888     0            0
C1       C     0            0.861112     0.333333     0
C2       C     0.03125      0.944445     0.333333     0
C3       C     0            0.972222     0.333333     0
C4       C     0.03125      0.888888     0.333333     0
C1       C     0            0.861112     0.666667     0
C2       C     0.03125      0.944445     0.666667     0
C3       C     0            0.972222     0.666667     0
C4       C     0.03125      0.888888     0.666667     0
C1       C     0.0625       0.0277783    0            0
C2       C     0.09375      0.111112     0            0
C3       C     0.0625       0.138888     0            0
C4       C     0.09375      0.055555     0            0
C1       C     0.0625       0.0277783    0.333333     0
C2       C     0.09375      0.111112     0.333333     0
C3       C     0.0625       0.138888     0.333333     0
C4       C     0.09375      0.055555     0.333333     0
C1       C     0.0625       0.0277783    0.666667     0
C2       C     0.09375      0.111112     0.666667     0
C3       C     0.0625       0.138888     0.666667     0
C4       C     0.09375      0.055555     0.666667     0
C1       C     0.0625       0.194445     0            0
C2       C     0.09375      0.277778     0            0
C3       C     0.0625       0.305555     0            0
C4       C     0.09375      0.222222     0            0
C1       C     0.0625       0.194445     0.333333     0
C2       C     0.09375      0.277778     0.333333     0
C3       C     0.0625       0.305555     0.333333     0
C4       C     0.09375      0.222222     0.333333     0
C1       C     0.0625       0.194445     0.666667     0
C2       C     0.09375      0.277778     0.666667     0
C3       C     0.0625       0.305555     0.666667     0
C4       C     0.09375      0.222222     0.666667     0
C1       C     0.0625       0.361112     0            0
C2       C     0.09375      0.444445     0            0
C3       C     0.0625       0.472222     0            0
C4       C     0.09375      0.388888     0            0
C1       C     0.0625       0.361112     0.333333     0
C2       C     0.09375      0.444445     0.333333     0
C3       C     0.0625       0.472222     0.333333     0
C4       C     0.09375      0.388888     0.333333     0
C1       C     0.0625       0.361112     0.666667     0
C2       C     0.09375      0.444445     0.666667     0
C3       C     0.0625       0.472222     0.666667     0
C4       C     0.09375      0.388888     0.666667     0
C1       C     0.0625       0.527778     0            0
C2       C     0.09375      0.611112     0            0
C3       C     0.0625       0.638888     0            0
C4       C     0.09375      0.555555     0            0
C1       C     0.0625       0.527778     0.333333     0
C2       C     0.09375      0.611112     0.333333     0
C3       C     0.0625       0.638888     0.333333     0
C4       C     0.09375      0.555555     0.333333     0
C1       C     0.0625       0.527778     0.666667     0
C2       C     0.09375      0.611112     0.666667     0
C3       C     0.0625       0.638888     0.666667     0
C4       C     0.09375      0.555555     0.666667     0
C1       C     0.0625       0.694445     0            0
C2       C     0.09375      0.777778     0            0
C3       C     0.0625       0.805555     0            0
C4       C     0.09375      0.722222     0            0
C1       C     0.0625       0.694445     0.333333     0
C2       C     0.09375      0.777778     0.333333     0
C3       C     0.0625       0.805555     0.333333     0
C4       C     0.09375      0.722222     0.333333     0
C1       C     0.0625       0.694445     0.666667     0
C2       C     0.09375      0.777778     0.666667     0
C3       C     0.0625       0.805555     0.666667     0
C4       C     0.09375      0.722222     0.666667     0
C1       C     0.0625       0.861112     0            0
C2       C     0.09375      0.944445     0            0
C3       C     0.0625       0.972222     0            0
C4       C     0.09375      0.888888     0            0
C1       C     0.0625       0.861112     0.333333     0
C2       C     0.09375      0.944445     0.333333     0
C3       C     0.0625       0.972222     0.333333     0
C4       C     0.09375      0.888888     0.333333     0
C1       C     0.0625       0.861112     0.666667     0
C2       C     0.09375      0.944445     0.666667     0
C3       C     0.0625       0.972222     0.666667     0
C4       C     0.09375      0.888888     0.666667     0
C1       C     0.125        0.0277783    0            0
C2       C     0.15625      0.111112     0            0
C3       C     0.125        0.138888     0            0
C4       C     0.15625      0.055555     0            0
C1       C     0.125        0.0277783    0.333333     0
C2       C     0.15625      0.111112     0.333333     0
C3       C     0.125        0.138888     0.333333     0
C4       C     0.15625      0.055555     0.333333     0
C1       C     0.125        0.0277783    0.666667     0
C2       C     0.15625      0.111112     0.666667     0
C3       C     0.125        0.138888     0.666667     0
C4       C     0.15625      0.055555     0.666667     0
C1       C     0.125        0.194445     0            0
C2       C     0.15625      0.277778     0            0
C3       C     0.125        0.305555     0            0
C4       C     0.15625      0.222222     0            0
C1       C     0.125        0.194445     0.333333     0
C2       C     0.15625      0.277778     0.333333     0
C3       C     0.125        0.305555     0.333333     0
C4       C     0.15625      0.222222     0.333333     0
C1       C     0.125        0.194445     0.666667     0
C2       C     0.15625      0.277778     0.666667     0
C3       C     0.125        0.305555     0.666667     0
C4       C     0.15625      0.222222     0.666667     0
C1       C     0.125        0.361112     0            0
C2       C     0.15625      0.444445     0            0
C3       C     0.125        0.472222     0            0
C4       C     0.15625      0.388888     0            0
C1       C     0.125        0.361112     0.333333     0
C2       C     0.15625      0.444445     0.333333     0
C3       C     0.125        0.472222     0.333333     0
C4       C     0.15625      0.388888     0.333333     0
C1       C     0.125        0.361112     0.666667     0
C2       C     0.15625      0.444445     0.666667     0
C3       C     0.125        0.472222     0.666667     0
C4       C     0.15625      0.388888     0.666667     0
C1       C     0.125        0.527778     0            0
C2       C     0.15625      0.611112     0            0
C3       C     0.125        0.638888     0            0
C4       C     0.15625      0.555555     0            0
C1       C     0.125        0.527778     0.333333     0
C2       C     0.15625      0.611112     0.333333     0
C3       C     0.125        0.638888     0.333333     0
C4       C     0.15625      0.555555     0.333333     0
C1       C     0.125        0.527778     0.666667     0
C2       C     0.15625      0.611112     0.666667     0
C3       C     0.125        0.638888     0.666667     0
C4       C     0.15625      0.555555     0.666667     0
C1       C     0.125        0.694445     0            0
C2       C     0.15625      0.777778     0            0
C3       C     0.125        0.805555     0            0
C4       C     0.15625      0.722222     0            0
C1       C     0.125        0.694445     0.333333     0
C2       C     0.15625      0.777778     0.333333     0
C3       C     0.125        0.805555     0.333333     0
C4       C     0.15625      0.722222     0.333333     0
C1       C     0.125        0.694445     0.666667     0
C2       C     0.15625      0.777778     0.666667     0
C3       C     0.125        0.805555     0.666667     0
C4       C     0.15625      0.722222     0.666667     0
C1       C     0.125        0.861112     0            0
C2       C     0.15625      0.944445     0            0
C3       C     0.125        0.972222     0            0
C4       C     0.15625      0.888888     0            0
C1       C     0.125        0.861112     0.333333     0
C2       C     0.15625      0.944445     0.333333     0
C3       C     0.125        0.972222     0.333333     0
C4       C     0.15625      0.888888     0.333333     0
C1       C     0.125        0.861112     0.666667     0
C2       C     0.15625      0.944445     0.666667     0
C3       C     0.125        0.972222     0.666667     0
C4       C     0.15625      0.888888     0.666667     0
C1       C     0.1875       0.0277783    0            0
C2       C     0.21875      0.111112     0            0
C3       C     0.1875       0.138888     0            0
C4       C     0.21875      0.055555     0            0
C1       C     0.1875       0.0277783    0.333333     0
C2       C     0.21875      0.111112     0.333333     0
C3       C     0.1875       0.138888     0.333333     0
C4       C     0.21875      0.055555     0.333333     0
C1       C     0.1875       0.0277783    0.666667     0
C2       C     0.21875      0.111112     0.666667     0
C3       C     0.1875       0.138888     0.666667     0
C4       C     0.21875      0.055555     0.666667     0
C1       C     0.1875       0.194445     0            0
C2       C     0.21875      0.277778     0            0
C3       C     0.1875       0.305555     0            0
C4       C     0.21875      0.222222     0            0
C1       C     0.1875       0.194445     0.333333     0
C2       C     0.21875      0.277778     0.333333     0
C3       C     0.1875       0.305555     0.333333     0
C4       C     0.21875      0.222222     0.333333     0
C1       C     0.1875       0.194445     0.666667     0
C2       C     0.21875      0.277778     0.666667     0
C3       C     0.1875       0.305555     0.666667     0
C4       C     0.21875      0.222222     0.666667     0
C1       C     0.1875       0.361112     0            0
C2       C     0.21875      0.444445     0            0
C3       C     0.1875       0.472222     0            0
C4       C     0.21875      0.388888     0            0
C1       C     0.1875       0.361112     0.333333     0
C2       C     0.21875      0.444445     0.333333     0
C3       C     0.1875       0.472222     0.333333     0
C4       C     0.21875      0.388888     0.333333     0
C1       C     0.1875       0.361112     0.666667     0
C2       C     0.21875      0.444445     0.666667     0
C3       C     0.1875       0.472222     0.666667     0
C4       C     0.21875      0.388888     0.666667     0
C1       C     0.1875       0.527778     0            0
C2       C     0.21875      0.611112     0            0
C3       C     0.1875       0.638888     0            0
C4       C     0.21875      0.555555     0            0
C1       C     0.1875       0.527778     0.333333     0
C2       C     0.21875      0.611112     0.333333     0
C3       C     0.1875       0.638888     0.333333     0
C4       C     0.21875      0.555555     0.333333     0
C1       C     0.1875       0.527778     0.666667     0
C2       C     0.21875      0.611112     0.666667     0
C3       C     0.1875       0.638888     0.666667     0
C4       C     0.21875      0.555555     0.666667     0
C1       C     0.1875       0.694445     0            0
C2       C     0.21875      0.777778     0            0
C3       C     0.1875       0.805555     0            0
C4       C     0.21875      0.722222     0            0
C1       C     0.1875       0.694445     0.333333     0
C2       C     0.21875      0.777778     0.333333     0
C3       C     0.1875       0.805555     0.333333     0
C4       C     0.21875      0.722222     0.333333     0
C1       C     0.1875       0.694445     0.666667     0
C2       C     0.21875      0.777778     0.666667     0
C3       C     0.1875       0.805555     0.666667     0
C4       C     0.21875      0.722222     0.666667     0
C1       C     0.1875       0.861112     0            0
C2       C     0.21875      0.944445     0            0
C3       C     0.1875       0.972222     0            0
C4       C     0.21875      0.888888     0            0
C1       C     0.1875       0.861112     0.333333     0
C2       C     0.21875      0.944445     0.333333     0
C3       C     0.1875       0.972222     0.333333     0
C4       C     0.21875      0.888888     0.333333     0
C1       C     0.1875       0.861112     0.666667     0
C2       C     0.21875      0.944445     0.666667     0
C3       C     0.1875       0.972222     0.666667     0
C4       C     0.21875      0.888888     0.666667     0
C1       C     0.25         0.0277783    0            0
C2       C     0.28125      0.111112     0            0
C3       C     0.25         0.138888     0            0
C4       C     0.28125      0.055555     0            0
C1       C     0.25         0.0277783    0.333333     0
C2       C     0.28125      0.111112     0.333333     0
C3       C     0.25         0.138888     0.333333     0
C4       C     0.28125      0.055555     0.333333     0
C1       C     0.25         0.0277783    0.666667     0
C2       C     0.28125      0.111112     0.666667     0
C3       C     0.25         0.138888     0.666667     0
C4       C     0.28125      0.055555     0.666667     0
C1       C     0.25         0.194445     0            0
C2       C     0.28125      0.277778     0            0
C3       C     0.25         0.305555     0            0
C4       C     0.28125      0.222222     0            0
C1       C     0.25         0.194445     0.333333     0
C2       C     0.28125      0.277778     0.333333     0
C3       C     0.25         0.305555     0.333333     0
C4       C     0.28125      0.222222     0.333333     0
C1       C     0.25         0.194445     0.666667     0
C2       C     0.28125      0.277778     0.666667     0
C3       C     0.25         0.305555     0.666667     0
C4       C     0.28125      0.222222     0.666667     0
C1       C     0.25         0.361112     0            0
C2       C     0.28125      0.444445     0            0
C3       C     0.25         0.472222     0            0
C4       C     0.28125      0.388888     0            0
C1       C     0.25         0.361112     0.333333     0
C2       C     0.28125      0.444445     0.333333     0
C3       C     0.25         0.472222     0.333333     0
C4       C     0.28125      0.388888     0.333333     0
C1       C     0.25         0.361112     0.666667     0
C2       C     0.28125      0.444445     0.666667     0
C3       C     0.25         0.472222     0.666667     0
C4       C     0.28125      0.388888     0.666667     0
C1       C     0.25         0.527778     0            0
C2       C     0.28125      0.611112     0            0
C3       C     0.25         0.638888     0            0
C4       C     0.28125      0.555555     0            0
C1       C     0.25         0.527778     0.333333     0
C2       C     0.28125      0.611112     0.333333     0
C3       C     0.25         0.638888     0.333333     0
C4       C     0.28125      0.555555     0.333333     0
C1       C     0.25         0.527778     0.666667     0
C2       C     0.28125      0.611112     0.666667     0
C3       C     0.25         0.638888     0.666667     0
C4       C     0.28125      0.555555     0.666667     0
C1       C     0.25         0.694445     0            0
C2       C     0.28125      0.777778     0            0
C3       C     0.25         0.805555     0            0
C4       C     0.28125      0.722222     0            0
C1       C     0.25         0.694445     0.333333     0
C2       C     0.28125      0.777778     0.333333     0
C3       C     0.25         0.805555     0.333333     0
C4       C     0.28125      0.722222     0.333333     0
C1       C     0.25         0.694445     0.666667     0
C2       C     0.28125      0.777778     0.666667     0
C3       C     0.25         0.805555     0.666667     0
C4       C     0.28125      0.722222     0.666667     0
C1       C     0.25         0.861112     0            0
C2       C     0.28125      0.944445     0            0
C3       C     0.25         0.972222     0            0
C4       C     0.28125      0.888888     0            0
C1       C     0.25         0.861112     0.333333     0
C2       C     0.28125      0.944445     0.333333     0
C3       C     0.25         0.972222     0.333333     0
C4       C     0.28125      0.888888     0.333333     0
C1       C     0.25         0.861112     0.666667     0
C2       C     0.28125      0.944445     0.666667     0
C3       C     0.25         0.972222     0.666667     0
C4       C     0.28125      0.888888     0.666667     0
C1       C     0.3125       0.0277783    0            0
C2       C     0.34375      0.111112     0            0
C3       C     0.3125       0.138888     0            0
C4       C     0.34375      0.055555     0            0
C1       C     0.3125       0.0277783    0.333333     0
C2       C     0.34375      0.111112     0.333333     0
C3       C     0.3125       0.138888     0.333333     0
C4       C     0.34375      0.055555     0.333333     0
C1       C     0.3125       0.0277783    0.666667     0
C2       C     0.34375      0.111112     0.666667     0
C3       C     0.3125       0.138888     0.666667     0
C4       C     0.34375      0.055555     0.666667     0
C1       C     0.3125       0.194445     0            0
C2       C     0.34375      0.277778     0            0
C3       C     0.3125       0.305555     0            0
C4       C     0.34375      0.222222     0            0
C1       C     0.3125       0.194445     0.333333     0
C2       C     0.34375      0.277778     0.333333     0
C3       C     0.3125       0.305555     0.333333     0
C4       C     0.34375      0.222222     0.333333     0
C1       C     0.3125       0.194445     0.666667     0
C2       C     0.34375      0.277778     0.666667     0
C3       C     0.3125       0.305555     0.666667     0
C4       C     0.34375      0.222222     0.666667     0
C1       C     0.3125       0.361112     0            0
C2       C     0.34375      0.444445     0            0
C3       C     0.3125       0.472222     0            0
C4       C     0.34375      0.388888     0            0
C1       C     0.3125       0.361112     0.333333     0
C2       C     0.34375      0.444445     0.333333     0
C3       C     0.3125       0.472222     0.333333     0
C4       C     0.34375      0.388888     0.333333     0
C1       C     0.3125       0.361112     0.666667     0
C2       C     0.34375      0.444445     0.666667     0
C3       C     0.3125       0.472222     0.666667     0
C4       C     0.34375      0.388888     0.666667     0
C1       C     0.3125       0.527778     0            0
C2       C     0.34375      0.611112     0            0
C3       C     0.3125       0.638888     0            0
C4       C     0.34375      0.555555     0            0
C1       C     0.3125       0.527778     0.333333     0
C2       C     0.34375      0.611112     0.333333     0
C3       C     0.3125       0.638888     0.333333     0
C4       C     0.34375      0.555555     0.333333     0
C1       C     0.3125       0.527778     0.666667     0
C2       C     0.34375      0.611112     0.666667     0
C3       C     0.3125       0.638888     0.666667     0
C4       C     0.34375      0.555555     0.666667     0
C1       C     0.3125       0.694445     0            0
C2       C     0.34375      0.777778     0            0
C3       C     0.3125       0.805555     0            0
C4       C     0.34375      0.722222     0            0
C1       C     0.3125       0.694445     0.333333     0
C2       C     0.34375      0.777778     0.333333     0
C3       C     0.3125       0.805555     0.333333     0
C4       C     0.34375      0.722222     0.333333     0
C1       C     0.3125       0.694445     0.666667     0
C2       C     0.34375      0.777778     0.666667     0
C3       C     0.3125       0.805555     0.666667     0
C4       C     0.34375      0.722222     0.666667     0
C1       C     0.3125       0.861112     0            0
C2       C     0.34375      0.944445     0            0
C3       C     0.3125       0.972222     0            0
C4       C     0.34375      0.888888     0            0
C1       C     0.3125       0.861112     0.333333     0
C2       C     0.34375      0.944445     0.333333     0
C3       C     0.3125       0.972222     0.333333     0
C4       C     0.34375      0.888888     0.333333     0
C1       C     0.3125       0.861112     0.666667     0
C2       C     0.34375      0.944445     0.666667     0
C3       C     0.3125       0.972222     0.666667     0
C4       C     0.34375      0.888888     0.666667     0
C1       C     0.375        0.0277783    0            0
C2       C     0.40625      0.111112     0            0
C3       C     0.375        0.138888     0            0
C4       C     0.40625      0.055555     0            0
C1       C     0.375        0.0277783    0.333333     0
C2       C     0.40625      0.111112     0.333333     0
C3       C     0.375        0.138888     0.333333     0
C4       C     0.40625      0.055555     0.333333     0
C1       C     0.375        0.0277783    0.666667     0
C2       C     0.40625      0.111112     0.666667     0
C3       C     0.375        0.138888     0.666667     0
C4       C     0.40625      0.055555     0.666667     0
C1       C     0.375        0.194445     0            0
C2       C     0.40625      0.277778     0            0
C3       C     0.375        0.305555     0            0
C4       C     0.40625      0.222222     0            0
C1       C     0.375        0.194445     0.333333     0
C2       C     0.40625      0.277778     0.333333     0
C3       C     0.375        0.305555     0.333333     0
C4       C     0.40625      0.222222     0.333333     0
C1       C     0.375        0.194445     0.666667     0
C2       C     0.40625      0.277778     0.666667     0
C3       C     0.375        0.305555     0.666667     0
C4       C     0.40625      0.222222     0.666667     0
C1       C     0.375        0.361112     0            0
C2       C     0.40625      0.444445     0            0
C3       C     0.375        0.472222     0            0
C4       C     0.40625      0.388888     0            0
C1       C     0.375        0.361112     0.333333     0
C2       C     0.40625      0.444445     0.333333     0
C3       C     0.375        0.472222     0.333333     0
C4       C     0.40625      0.388888     0.333333     0
C1       C     0.375        0.361112     0.666667     0
C2       C     0.40625      0.444445     0.666667     0
C3       C     0.375        0.472222     0.666667     0
C4       C     0.40625      0.388888     0.666667     0
C1       C     0.375        0.527778     0            0
C2       C     0.40625      0.611112     0            0
C3       C     0.375        0.638888     0            0
C4       C     0.40625      0.555555     0            0
C1       C     0.375        0.527778     0.333333     0
C2       C     0.40625      0.611112     0.333333     0
C3       C     0.375        0.638888     0.333333     0
C4       C     0.40625      0.555555     0.333333     0
C1       C     0.375        0.527778     0.666667     0
C2       C     0.40625      0.611112     0.666667     0
C3       C     0.375        0.638888     0.666667     0
C4       C     0.40625      0.555555     0.666667     0
C1       C     0.375        0.694445     0            0
C2       C     0.40625      0.777778     0            0
C3       C     0.375        0.805555     0            0
C4       C     0.40625      0.722222     0            0
C1       C     0.375        0.694445     0.333333     0
C2       C     0.40625      0.777778     0.333333     0
C3       C     0.375        0.805555     0.333333     0
C4       C     0.40625      0.722222     0.333333     0
C1       C     0.375        0.694445     0.666667     0
C2       C     0.40625      0.777778     0.666667     0
C3       C     0.375        0.805555     0.666667     0
C4       C     0.40625      0.722222     0.666667     0
C1       C     0.375        0.861112     0            0
C2       C     0.40625      0.944445     0            0
C3       C     0.375        0.972222     0            0
C4       C     0.40625      0.888888     0            0
C1       C     0.375        0.861112     0.333333     0
C2       C     0.40625      0.944445     0.333333     0
C3       C     0.375        0.972222     0.333333     0
C4       C     0.40625      0.888888     0.333333     0
C1       C     0.375        0.861112     0.666667     0
C2       C     0.40625      0.944445     0.666667     0
C3       C     0.375        0.972222     0.666667     0
C4       C     0.40625      0.888888     0.666667     0
C1       C     0.4375       0.0277783    0            0
C2       C     0.46875      0.111112     0            0
C3       C     0.4375       0.138888     0            0
C4       C     0.46875      0.055555     0            0
C1       C     0.4375       0.0277783    0.333333     0
C2       C     0.46875      0.111112     0.333333     0
C3       C     0.4375       0.138888     0.333333     0
C4       C     0.46875      0.055555     0.333333     0
C1       C     0.4375       0.0277783    0.666667     0
C2       C     0.46875      0.111112     0.666667     0
C3       C     0.4375       0.138888     0.666667     0
C4       C     0.46875      0.055555     0.666667     0
C1       C     0.4375       0.194445     0            0
C2       C     0.46875      0.277778     0            0
C3       C     0.4375       0.305555     0            0
C4       C     0.46875      0.222222     0            0
C1       C     0.4375       0.194445     0.333333     0
C2       C     0.46875      0.277778     0.333333     0
C3       C     0.4375       0.305555     0.333333     0
C4       C     0.46875      0.222222     0.333333     0
C1       C     0.4375       0.194445     0.666667     0
C2       C     0.46875      0.277778     0.666667     0
C3       C     0.4375       0.305555     0.666667     0
C4       C     0.46875      0.222222     0.666667     0
C1       C     0.4375       0.361112     0            0
C2       C     0.46875      0.444445     0            0
C3       C     0.4375       0.472222     0            0
C4       C     0.46875      0.388888     0            0
C1       C     0.4375       0.361112     0.333333     0
C2       C     0.46875      0.444445     0.333333     0
C3       C     0.4375       0.472222     0.333333     0
C4       C     0.46875      0.388888     0.333333     0
C1       C     0.4375       0.361112     0.666667     0
C2       C     0.46875      0.444445     0.666667     0
C3       C     0.4375       0.472222     0.666667     0
C4       C     0.46875      0.388888     0.666667     0
C1       C     0.4375       0.527778     0            0
C2       C     0.46875      0.611112     0            0
C3       C     0.4375       0.638888     0            0
C4       C     0.46875      0.555555     0            0
C1       C     0.4375       0.527778     0.333333     0
C2       C     0.46875      0.611112     0.333333     0
C3       C     0.4375       0.638888     0.333333     0
C4       C     0.46875      0.555555     0.333333     0
C1       C     0.4375       0.527778     0.666667     0
C2       C     0.46875      0.611112     0.666667     0
C3       C     0.4375       0.638888     0.666667     0
C4       C     0.46875      0.555555     0.666667     0
C1       C     0.4375       0.694445     0            0
C2       C     0.46875      0.777778     0            0
C3       C     0.4375       0.805555     0            0
C4       C     0.46875      0.722222     0            0
C1       C     0.4375       0.694445     0.333333     0
C2       C     0.46875      0.777778     0.333333     0
C3       C     0.4375       0.805555     0.333333     0
C4       C     0.46875      0.722222     0.333333     0
C1       C     0.4375       0.694445     0.666667     0
C2       C     0.46875      0.777778     0.666667     0
C3       C     0.4375       0.805555     0.666667     0
C4       C     0.46875      0.722222     0.666667     0
C1       C     0.4375       0.861112     0            0
C2       C     0.46875      0.944445     0            0
C3       C     0.4375       0.972222     0            0
C4       C     0.46875      0.888888     0            0
C1       C     0.4375       0.861112     0.333333     0
C2       C     0.46875      0.944445     0.333333     0
C3       C     0.4375       0.972222     0.333333     0
C4       C     0.46875      0.888888     0.333333     0
C1       C     0.4375       0.861112     0.666667     0
C2       C     0.46875      0.944445     0.666667     0
C3       C     0.4375       0.972222     0.666667     0
C4       C     0.46875      0.888888     0.666667     0
C1       C     0.5          0.0277783    0            0
C2       C     0.53125      0.111112     0            0
C3       C     0.5          0.138888     0            0
C4       C     0.53125      0.055555     0            0
C1       C     0.5          0.0277783    0.333333     0
C2       C     0.53125      0.111112     0.333333     0
C3       C     0.5          0.138888     0.333333     0
C4       C     0.53125      0.055555     0.333333     0
C1       C     0.5          0.0277783    0.666667     0
C2       C     0.53125      0.111112     0.666667     0
C3       C     0.5          0.138888     0.666667     0
C4       C     0.53125      0.055555     0.666667     0
C1       C     0.5          0.194445     0            0
C2       C     0.53125      0.277778     0            0
C3       C     0.5          0.305555     0            0
C4       C     0.53125      0.222222     0            0
C1       C     0.5          0.194445     0.333333     0
C2       C     0.53125      0.277778     0.333333     0
C3       C     0.5          0.305555     0.333333     0
C4       C     0.53125      0.222222     0.333333     0
C1       C     0.5          0.194445     0.666667     0
C2       C     0.53125      0.277778     0.666667     0
C3       C     0.5          0.305555     0.666667     0
C4       C     0.53125      0.222222     0.666667     0
C1       C     0.5          0.361112     0            0
C2       C     0.53125      0.444445     0            0
C3       C     0.5          0.472222     0            0
C4       C     0.53125      0.388888     0            0
C1       C     0.5          0.361112     0.333333     0
C2       C     0.53125      0.444445     0.333333     0
C3       C     0.5          0.472222     0.333333     0
C4       C     0.53125      0.388888     0.333333     0
C1       C     0.5          0.361112     0.666667     0
C2       C     0.53125      0.444445     0.666667     0
C3       C     0.5          0.472222     0.666667     0
C4       C     0.53125      0.388888     0.666667     0
C1       C     0.5          0.527778     0            0
C2       C     0.53125      0.611112     0            0
C3       C     0.5          0.638888     0            0
C4       C     0.53125      0.555555     0            0
C1       C     0.5          0.527778     0.333333     0
C2       C     0.53125      0.611112     0.333333     0
C3       C     0.5          0.638888     0.333333     0
C4       C     0.53125      0.555555     0.333333     0
C1       C     0.5          0.527778     0.666667     0
C2       C     0.53125      0.611112     0.666667     0
C3       C     0.5          0.638888     0.666667     0
C4       C     0.53125      0.555555     0.666667     0
C1       C     0.5          0.694445     0            0
C2       C     0.53125      0.777778     0            0
C3       C     0.5          0.805555     0            0
C4       C     0.53125      0.722222     0            0
C1       C     0.5          0.694445     0.333333     0
C2       C     0.53125      0.777778     0.333333     0
C3       C     0.5          0.805555     0.333333     0
C4       C     0.53125      0.722222     0.333333     0
C1       C     0.5          0.694445     0.666667     0
C2       C     0.53125      0.777778     0.666667     0
C3       C     0.5          0.805555     0.666667     0
C4       C     0.53125      0.722222     0.666667     0
C1       C     0.5          0.861112     0            0
C2       C     0.53125      0.944445     0            0
C3       C     0.5          0.972222     0            0
C4       C     0.53125      0.888888     0            0
C1       C     0.5          0.861112     0.333333     0
C2       C     0.53125      0.944445     0.333333     0
C3       C     0.5          0.972222     0.333333     0
C4       C     0.53125      0.888888     0.333333     0
C1       C     0.5          0.861112     0.666667     0
C2       C     0.53125      0.944445     0.666667     0
C3       C     0.5          0.972222     0.666667     0
C4       C     0.53125      0.888888     0.666667     0
C1       C     0.5625       0.0277783    0            0
C2       C     0.59375      0.111112     0            0
C3       C     0.5625       0.138888     0            0
C4       C     0.59375      0.055555     0            0
C1       C     0.5625       0.0277783    0.333333     0
C2       C     0.59375      0.111112     0.333333     0
C3       C     0.5625       0.138888     0.333333     0
C4       C     0.59375      0.055555     0.333333     0
C1       C     0.5625       0.0277783    0.666667     0
C2       C     0.59375      0.111112     0.666667     0
C3       C     0.5625       0.138888     0.666667     0
C4       C     0.59375      0.055555     0.666667     0
C1       C     0.5625       0.194445     0            0
C2       C     0.59375      0.277778     0            0
C3       C     0.5625       0.305555     0            0
C4       C     0.59375      0.222222     0            0
C1       C     0.5625       0.194445     0.333333     0
C2       C     0.59375      0.277778     0.333333     0
C3       C     0.5625       0.305555     0.333333     0
C4       C     0.59375      0.222222     0.333333     0
C1       C     0.5625       0.194445     0.666667     0
C2       C     0.59375      0.277778     0.666667     0
C3       C     0.5625       0.305555     0.666667     0
C4       C     0.59375      0.222222     0.666667     0
C1       C     0.5625       0.361112     0            0
C2       C     0.59375      0.444445     0            0
C3       C     0.5625       0.472222     0            0
C4       C     0.59375      0.388888     0            0
C1       C     0.5625       0.361112     0.333333     0
C2       C     0.59375      0.444445     0.333333     0
C3       C     0.5625       0.472222     0.333333     0
C4       C     0.59375      0.388888     0.333333     0
C1       C     0.5625       0.361112     0.666667     0
C2       C     0.59375      0.444445     0.666667     0
C3       C     0.5625       0.472222     0.666667     0
C4       C     0.59375      0.388888     0.666667     0
C1       C     0.5625       0.527778     0            0
C2       C     0.59375      0.611112     0            0
C3       C     0.5625       0.638888     0            0
C4       C     0.59375      0.555555     0            0
C1       C     0.5625       0.527778     0.333333     0
C2       C     0.59375      0.611112     0.333333     0
C3       C     0.5625       0.638888     0.333333     0
C4       C     0.59375      0.555555     0.333333     0
C1       C     0.5625       0.527778     0.666667     0
C2       C     0.59375      0.611112     0.666667     0
C3       C     0.5625       0.638888     0.666667     0
C4       C     0.59375      0.555555     0.666667     0
C1       C     0.5625       0.694445     0            0
C2       C     0.59375      0.777778     0            0
C3       C     0.5625       0.805555     0            0
C4       C     0.59375      0.722222     0            0
C1       C     0.5625       0.694445     0.333333     0
C2       C     0.59375      0.777778     0.333333     0
C3       C     0.5625       0.805555     0.333333     0
C4       C     0.59375      0.722222     0.333333     0
C1       C     0.5625       0.694445     0.666667     0
C2       C     0.59375      0.777778     0.666667     0
C3       C     0.5625       0.805555     0.666667     0
C4       C     0.59375      0.722222     0.666667     0
C1       C     0.5625       0.861112     0            0
C2       C     0.59375      0.944445     0            0
C3       C     0.5625       0.972222     0            0
C4       C     0.59375      0.888888     0            0
C1       C     0.5625       0.861112     0.333333     0
C2       C     0.59375      0.944445     0.333333     0
C3       C     0.5625       0.972222     0.333333     0
C4       C     0.59375      0.888888     0.333333     0
C1       C     0.5625       0.861112     0.666667     0
C2       C     0.59375      0.944445     0.666667     0
C3       C     0.5625       0.972222     0.666667     0
C4       C     0.59375      0.888888     0.666667     0
C1       C     0.625        0.0277783    0            0
C2       C     0.65625      0.111112     0            0
C3       C     0.625        0.138888     0            0
C4       C     0.65625      0.055555     0            0
C1       C     0.625        0.0277783    0.333333     0
C2       C     0.65625      0.111112     0.333333     0
C3       C     0.625        0.138888     0.333333     0
C4       C     0.65625      0.055555     0.333333     0
C1       C     0.625        0.0277783    0.666667     0
C2       C     0.65625      0.111112     0.666667     0
C3       C     0.625        0.138888     0.666667     0
C4       C     0.65625      0.055555     0.666667     0
C1       C     0.625        0.194445     0            0
C2       C     0.65625      0.277778     0            0
C3       C     0.625        0.305555     0            0
C4       C     0.65625      0.222222     0            0
C1       C     0.625        0.194445     0.333333     0
C2       C     0.65625      0.277778     0.333333     0
C3       C     0.625        0.305555     0.333333     0
C4       C     0.65625      0.222222     0.333333     0
C1       C     0.625        0.194445     0.666667     0
C2       C     0.65625      0.277778     0.666667     0
C3       C     0.625        0.305555     0.666667     0
C4       C     0.65625      0.222222     0.666667     0
C1       C     0.625        0.361112     0            0
C2       C     0.65625      0.444445     0            0
C3       C     0.625        0.472222     0            0
C4       C     0.65625      0.388888     0            0
C1       C     0.625        0.361112     0.333333     0
C2       C     0.65625      0.444445     0.333333     0
C3       C     0.625        0.472222     0.333333     0
C4       C     0.65625      0.388888     0.333333     0
C1       C     0.625        0.361112     0.666667     0
C2       C     0.65625      0.444445     0.666667     0
C3       C     0.625        0.472222     0.666667     0
C4       C     0.65625      0.388888     0.666667     0
C1       C     0.625        0.527778     0            0
C2       C     0.65625      0.611112     0            0
C3       C     0.625        0.638888     0            0
C4       C     0.65625      0.555555     0            0
C1       C     0.625        0.527778     0.333333     0
C2       C     0.65625      0.611112     0.333333     0
C3       C     0.625        0.638888     0.333333     0
C4       C     0.65625      0.555555     0.333333     0
C1       C     0.625        0.527778     0.666667     0
C2       C     0.65625      0.611112     0.666667     0
C3       C     0.625        0.638888     0.666667     0
C4       C     0.65625      0.555555     0.666667     0
C1       C     0.625        0.694445     0            0
C2       C     0.65625      0.777778     0            0
C3       C     0.625        0.805555     0            0
C4       C     0.65625      0.722222     0            0
C1       C     0.625        0.694445     0.333333     0
C2       C     0.65625      0.777778     0.333333     0
C3       C     0.625        0.805555     0.333333     0
C4       C     0.65625      0.722222     0.333333     0
C1       C     0.625        0.694445     0.666667     0
C2       C     0.65625      0.777778     0.666667     0
C3       C     0.625        0.805555     0.666667     0
C4       C     0.65625      0.722222     0.666667     0
C1       C     0.625        0.861112     0            0
C2       C     0.65625      0.944445     0            0
C3       C     0.625        0.972222     0            0
C4       C     0.65625      0.888888     0            0
C1       C     0.625        0.861112     0.333333     0
C2       C     0.65625      0.944445     0.333333     0
C3       C     0.625        0.972222     0.333333     0
C4       C     0.65625      0.888888     0.333333     0
C1       C     0.625        0.861112     0.666667     0
C2       C     0.65625      0.944445     0.666667     0
C3       C     0.625        0.972222     0.666667     0
C4       C     0.65625      0.888888     0.666667     0
C1       C     0.6875       0.0277783    0            0
C2       C     0.71875      0.111112     0            0
C3       C     0.6875       0.138888     0            0
C4       C     0.71875      0.055555     0            0
C1       C     0.6875       0.0277783    0.333333     0
C2       C     0.71875      0.111112     0.333333     0
C3       C     0.6875       0.138888     0.333333     0
C4       C     0.71875      0.055555     0.333333     0
C1       C     0.6875       0.0277783    0.666667     0
C2       C     0.71875      0.111112     0.666667     0
C3       C     0.6875       0.138888     0.666667     0
C4       C     0.71875      0.055555     0.666667     0
C1       C     0.6875       0.194445     0            0
C2       C     0.71875      0.277778     0            0
C3       C     0.6875       0.305555     0            0
C4       C     0.71875      0.222222     0            0
C1       C     0.6875       0.194445     0.333333     0
C2       C     0.71875      0.277778     0.333333     0
C3       C     0.6875       0.305555     0.333333     0
C4       C     0.71875      0.222222     0.333333     0
C1       C     0.6875       0.194445     0.666667     0
C2       C     0.71875      0.277778     0.666667     0
C3       C     0.6875       0.305555     0.666667     0
C4       C     0.71875      0.222222     0.666667     0
C1       C     0.6875       0.361112     0            0
C2       C     0.71875      0.444445     0            0
C3       C     0.6875       0.472222     0            0
C4       C     0.71875      0.388888     0            0
C1       C     0.6875       0.361112     0.333333     0
C2       C     0.71875      0.444445     0.333333     0
C3       C     0.6875       0.472222     0.333333     0
C4       C     0.71875      0.388888     0.333333     0
C1       C     0.6875       0.361112     0.666667     0
C2       C     0.71875      0.444445     0.666667     0
C3       C     0.6875       0.472222     0.666667     0
C4       C     0.71875      0.388888     0.666667     0
C1       C     0.6875       0.527778     0            0
C2       C     0.71875      0.611112     0            0
C3       C     0.6875       0.638888     0            0
C4       C     0.71875      0.555555     0            0
C1       C     0.6875       0.527778     0.333333     0
C2       C     0.71875      0.611112     0.333333     0
C3       C     0.6875       0.638888     0.333333     0
C4       C     0.71875      0.555555     0.333333     0
C1       C     0.6875       0.527778     0.666667     0
C2       C     0.71875      0.611112     0.666667     0
C3       C     0.6875       0.638888     0.666667     0
C4       C     0.71875      0.555555     0.666667     0
C1       C     0.6875       0.694445     0            0
C2       C     0.71875      0.777778     0            0
C3       C     0.6875       0.805555     0            0
C4       C     0.71875      0.722222     0            0
C1       C     0.6875       0.694445     0.333333     0
C2       C     0.71875      0.777778     0.333333     0
C3       C     0.6875       0.805555     0.333333     0
C4       C     0.71875      0.722222     0.333333     0
C1       C     0.6875       0.694445     0.666667     0
C2       C     0.71875      0.777778     0.666667     0
C3       C     0.6875       0.805555     0.666667     0
C4       C     0.71875      0.722222     0.666667     0
C1       C     0.6875       0.861112     0            0
C2       C     0.71875      0.944445     0            0
C3       C     0.6875       0.972222     0            0
C4       C     0.71875      0.888888     0            0
C1       C     0.6875       0.861112     0.333333     0
C2       C     0.71875      0.944445     0.333333     0
C3       C     0.6875       0.972222     0.333333     0
C4       C     0.71875      0.888888     0.333333     0
C1       C     0.6875       0.861112     0.666667     0
C2       C     0.71875      0.944445     0.666667     0
C3       C     0.6875       0.972222     0.666667     0
C4       C     0.71875      0.888888     0.666667     0
C1       C     0.75         0.0277783    0            0
C2       C     0.78125      0.111112     0            0
C3       C     0.75         0.138888     0            0
C4       C     0.78125      0.055555     0            0
C1       C     0.75         0.0277783    0.333333     0
C2       C     0.78125      0.111112     0.333333     0
C3       C     0.75         0.138888     0.333333     0
C4       C     0.78125      0.055555     0.333333     0
C1       C     0.75         0.0277783    0.666667     0
C2       C     0.78125      0.111112     0.666667     0
C3       C     0.75         0.138888     0.666667     0
C4       C     0.78125      0.055555     0.666667     0
C1       C     0.75         0.194445     0            0
C2       C     0.78125      0.277778     0            0
C3       C     0.75         0.305555     0            0
C4       C     0.78125      0.222222     0            0
C1       C     0.75         0.194445     0.333333     0
C2       C     0.78125      0.277778     0.333333     0
C3       C     0.75         0.305555     0.333333     0
C4       C     0.78125      0.222222     0.333333     0
C1       C     0.75         0.194445     0.666667     0
C2       C     0.78125      0.277778     0.666667     0
C3       C     0.75         0.305555     0.666667     0
C4       C     0.78125      0.222222     0.666667     0
C1       C     0.75         0.361112     0            0
C2       C     0.78125      0.444445     0            0
C3       C     0.75         0.472222     0            0
C4       C     0.78125      0.388888     0            0
C1       C     0.75         0.361112     0.333333     0
C2       C     0.78125      0.444445     0.333333     0
C3       C     0.75         0.472222     0.333333     0
C4       C     0.78125      0.388888     0.333333     0
C1       C     0.75         0.361112     0.666667     0
C2       C     0.78125      0.444445     0.666667     0
C3       C     0.75         0.472222     0.666667     0
C4       C     0.78125      0.388888     0.666667     0
C1       C     0.75         0.527778     0            0
C2       C     0.78125      0.611112     0            0
C3       C     0.75         0.638888     0            0
C4       C     0.78125      0.555555     0            0
C1       C     0.75         0.527778     0.333333     0
C2       C     0.78125      0.611112     0.333333     0
C3       C     0.75         0.638888     0.333333     0
C4       C     0.78125      0.555555     0.333333     0
C1       C     0.75         0.527778     0.666667     0
C2       C     0.78125      0.611112     0.666667     0
C3       C     0.75         0.638888     0.666667     0
C4       C     0.78125      0.555555     0.666667     0
C1       C     0.75         0.694445     0            0
C2       C     0.78125      0.777778     0            0
C3       C     0.75         0.805555     0            0
C4       C     0.78125      0.722222     0            0
C1       C     0.75         0.694445     0.333333     0
C2       C     0.78125      0.777778     0.333333     0
C3       C     0.75         0.805555     0.333333     0
C4       C     0.78125      0.722222     0.333333     0
C1       C     0.75         0.694445     0.666667     0
C2       C     0.78125      0.777778     0.666667     0
C3       C     0.75         0.805555     0.666667     0
C4       C     0.78125      0.722222     0.666667     0
C1       C     0.75         0.861112     0            0
C2       C     0.78125      0.944445     0            0
C3       C     0.75         0.972222     0            0
C4       C     0.78125      0.888888     0            0
C1       C     0.75         0.861112     0.333333     0
C2       C     0.78125      0.944445     0.333333     0
C3       C     0.75         0.972222     0.333333     0
C4       C     0.78125      0.888888     0.333333     0
C1       C     0.75         0.861112     0.666667     0
C2       C     0.78125      0.944445     0.666667     0
C3       C     0.75         0.972222     0.666667     0
C4       C     0.78125      0.888888     0.666667     0
C1       C     0.8125       0.0277783    0            0
C2       C     0.84375      0.111112     0            0
C3       C     0.8125       0.138888     0            0
C4       C     0.84375      0.055555     0            0
C1       C     0.8125       0.0277783    0.333333     0
C2       C     0.84375      0.111112     0.333333     0
C3       C     0.8125       0.138888     0.333333     0
C4       C     0.84375      0.055555     0.333333     0
C1       C     0.8125       0.0277783    0.666667     0
C2       C     0.84375      0.111112     0.666667     0
C3       C     0.8125       0.138888     0.666667     0
C4       C     0.84375      0.055555     0.666667     0
C1       C     0.8125       0.194445     0            0
C2       C     0.84375      0.277778     0            0
C3       C     0.8125       0.305555     0            0
C4       C     0.84375      0.222222     0            0
C1       C     0.8125       0.194445     0.333333     0
C2       C     0.84375      0.277778     0.333333     0
C3       C     0.8125       0.305555     0.333333     0
C4       C     0.84375      0.222222     0.333333     0
C1       C     0.8125       0.194445     0.666667     0
C2       C     0.84375      0.277778     0.666667     0
C3       C     0.8125       0.305555     0.666667     0
C4       C     0.84375      0.222222     0.666667     0
C1       C     0.8125       0.361112     0            0
C2       C     0.84375      0.444445     0            0
C3       C     0.8125       0.472222     0            0
C4       C     0.84375      0.388888     0            0
C1       C     0.8125       0.361112     0.333333     0
C2       C     0.84375      0.444445     0.333333     0
C3       C     0.8125       0.472222     0.333333     0
C4       C     0.84375      0.388888     0.333333     0
C1       C     0.8125       0.361112     0.666667     0
C2       C     0.84375      0.444445     0.666667     0
C3       C     0.8125       0.472222     0.666667     0
C4       C     0.84375      0.388888     0.666667     0
C1       C     0.8125       0.527778     0            0
C2       C     0.84375      0.611112     0            0
C3       C     0.8125       0.638888     0            0
C4       C     0.84375      0.555555     0            0
C1       C     0.8125       0.527778     0.333333     0
C2       C     0.84375      0.611112     0.333333     0
C3       C     0.8125       0.638888     0.333333     0
C4       C     0.84375      0.555555     0.333333     0
C1       C     0.8125       0.527778     0.666667     0
C2       C     0.84375      0.611112     0.666667     0
C3       C     0.8125       0.638888     0.666667     0
C4       C     0.84375      0.555555     0.666667     0
C1       C     0.8125       0.694445     0            0
C2       C     0.84375      0.777778     0            0
C3       C     0.8125       0.805555     0            0
C4       C     0.84375      0.722222     0            0
C1       C     0.8125       0.694445     0.333333     0
C2       C     0.84375      0.777778     0.333333     0
C3       C     0.8125       0.805555     0.333333     0
C4       C     0.84375      0.722222     0.333333     0
C1       C     0.8125       0.694445     0.666667     0
C2       C     0.84375      0.777778     0.666667     0
C3       C     0.8125       0.805555     0.666667     0
C4       C     0.84375      0.722222     0.666667     0
C1       C     0.8125       0.861112     0            0
C2       C     0.84375      0.944445     0            0
C3       C     0.8125       0.972222     0            0
C4       C     0.84375      0.888888     0            0
C1       C     0.8125       0.861112     0.333333     0
C2       C     0.84375      0.944445     0.333333     0
C3       C     0.8125       0.972222     0.333333     0
C4       C     0.84375      0.888888     0.333333     0
C1       C     0.8125       0.861112     0.666667     0
C2       C     0.84375      0.944445     0.666667     0
C3       C     0.8125       0.972222     0.666667     0
C4       C     0.84375      0.888888     0.666667     0
C1       C     0.875        0.0277783    0            0
C2       C     0.90625      0.111112     0            0
C3       C     0.875        0.138888     0            0
C4       C     0.90625      0.055555     0            0
C1       C     0.875        0.0277783    0.333333     0
C2       C     0.90625      0.111112     0.333333     0
C3       C     0.875        0.138888     0.333333     0
C4       C     0.90625      0.055555     0.333333     0
C1       C     0.875        0.0277783    0.666667     0
C2       C     0.90625      0.111112     0.666667     0
C3       C     0.875        0.138888     0.666667     0
C4       C     0.90625      0.055555     0.666667     0
C1       C     0.875        0.194445     0            0
C2       C     0.90625      0.277778     0            0
C3       C     0.875        0.305555     0            0
C4       C     0.90625      0.222222     0            0
C1       C     0.875        0.194445     0.333333     0
C2       C     0.90625      0.277778     0.333333     0
C3       C     0.875        0.305555     0.333333     0
C4       C     0.90625      0.222222     0.333333     0
C1       C     0.875        0.194445     0.666667     0
C2       C     0.90625      0.277778     0.666667     0
C3       C     0.875        0.305555     0.666667     0
C4       C     0.90625      0.222222     0.666667     0
C1       C     0.875        0.361112     0            0
C2       C     0.90625      0.444445     0            0
C3       C     0.875        0.472222     0            0
C4       C     0.90625      0.388888     0            0
C1       C     0.875        0.361112     0.333333     0
C2       C     0.90625      0.444445     0.333333     0
C3       C     0.875        0.472222     0.333333     0
C4       C     0.90625      0.388888     0.333333     0
C1       C     0.875        0.361112     0.666667     0
C2       C     0.90625      0.444445     0.666667     0
C3       C     0.875        0.472222     0.666667     0
C4       C     0.90625      0.388888     0.666667     0
C1       C     0.875        0.527778     0            0
C2       C     0.90625      0.611112     0            0
C3       C     0.875        0.638888     0            0
C4       C     0.90625      0.555555     0            0
C1       C     0.875        0.527778     0.333333     0
C2       C     0.90625      0.611112     0.333333     0
C3       C     0.875        0.638888     0.333333     0
C4       C     0.90625      0.555555     0.333333     0
C1       C     0.875        0.527778     0.666667     0
C2       C     0.90625      0.611112     0.666667     0
C3       C     0.875        0.638888     0.666667     0
C4       C     0.90625      0.555555     0.666667     0
C1       C     0.875        0.694445     0            0
C2       C     0.90625      0.777778     0            0
C3       C     0.875        0.805555     0            0
C4       C     0.90625      0.722222     0            0
C1       C     0.875        0.694445     0.333333     0
C2       C     0.90625      0.777778     0.333333     0
C3       C     0.875        0.805555     0.333333     0
C4       C     0.90625      0.722222     0.333333     0
C1       C     0.875        0.694445     0.666667     0
C2       C     0.90625      0.777778     0.666667     0
C3       C     0.875        0.805555     0.666667     0
C4       C     0.90625      0.722222     0.666667     0
C1       C     0.875        0.861112     0            0
C2       C     0.90625      0.944445     0            0
C3       C     0.875        0.972222     0            0
C4       C     0.90625      0.888888     0            0
C1       C     0.875        0.861112     0.333333     0
C2       C     0.90625      0.944445     0.333333     0
C3       C     0.875        0.972222     0.333333     0
C4       C     0.90625      0.888888     0.333333     0
C1       C     0.875        0.861112     0.666667     0
C2       C     0.90625      0.944445     0.666667     0
C3       C     0.875        0.972222     0.666667     0
C4       C     0.90625      0.888888     0.666667     0
C1       C     0.9375       0.0277783    0            0
C2       C     0.96875      0.111112     0            0
C3       C     0.9375       0.138888     0            0
C4       C     0.96875      0.055555     0            0
C1       C     0.9375       0.0277783    0.333333     0
C2       C     0.96875      0.111112     0.333333     0
C3       C     0.9375       0.138888     0.333333     0
C4       C     0.96875      0.055555     0.333333     0
C1       C     0.9375       0.0277783    0.666667     0
C2       C     0.96875      0.111112     0.666667     0
C3       C     0.9375       0.138888     0.666667     0
C4       C     0.96875      0.055555     0.666667     0
C1       C     0.9375       0.194445     0            0
C2       C     0.96875      0.277778     0            0
C3       C     0.9375       0.305555     0            0
C4       C     0.96875      0.222222     0            0
C1       C     0.9375       0.194445     0.333333     0
C2       C     0.96875      0.277778     0.333333     0
C3       C     0.9375       0.305555     0.333333     0
C4       C     0.96875      0.222222     0.333333     0
C1       C     0.9375       0.194445     0.666667     0
C2       C     0.96875      0.277778     0.666667     0
C3       C     0.9375       0.305555     0.666667     0
C4       C     0.96875      0.222222     0.666667     0
C1       C     0.9375       0.361112     0            0
C2       C     0.96875      0.444445     0            0
C3       C     0.9375       0.472222     0            0
C4       C     0.96875      0.388888     0            0
C1       C     0.9375       0.361112     0.333333     0
C2       C     0.96875      0.444445     0.333333     0
C3       C     0.9375       0.472222     0.333333     0
C4       C     0.96875      0.388888     0.333333     0
C1       C     0.9375       0.361112     0.666667     0
C2       C     0.96875      0.444445     0.666667     0
C3       C     0.9375       0.472222     0.666667     0
C4       C     0.96875      0.388888     0.666667     0
C1       C     0.9375       0.527778     0            0
C2       C     0.96875      0.611112     0            0
C3       C     0.9375       0.638888     0            0
C4       C     0.96875      0.555555     0            0
C1       C     0.9375       0.527778     0.333333     0
C2       C     0.96875      0.611112     0.333333     0
C3       C     0.9375       0.638888     0.333333     0
C4       C     0.96875      0.555555     0.333333     0
C1       C     0.9375       0.527778     0.666667     0
C2       C     0.96875      0.611112     0.666667     0
C3       C     0.9375       0.638888     0.666667     0
C4       C     0.96875      0.555555     0.666667     0
C1       C     0.9375       0.694445     0            0
C2       C     0.96875      0.777778     0            0
C3       C     0.9375       0.805555     0            0
C4       C     0.96875      0.722222     0            0
C1       C     0.9375       0.694445     0.333333     0
C2       C     0.96875      0.777778     0.333333     0
C3       C     0.9375       0.805555     0.333333     0
C4       C     0.96875      0.722222     0.333333     0
C1       C     0.9375       0.694445     0.666667     0
C2       C     0.96875      0.777778     0.666667     0
C3       C     0.9375       0.805555     0.666667     0
C4       C     0.96875      0.722222     0.666667     0
C1       C     0.9375       0.861112     0            0
C2       C     0.96875      0.944445     0            0
C3       C     0.9375       0.972222     0            0
C4       C     0.96875      0.888888     0            0
C1       C     0.9375       0.861112     0.333333     0
C2       C     0.96875      0.944445     0.333333     0
C3       C     0.9375       0.972222     0.333333     0
C4       C     0.96875      0.888888     0.333333     0
C1       C     0.9375       0.861112     0.666667     0
C2       C     0.96875      0.944445     0.666667     0
C3       C     0.9375       0.972222     0.666667     0
C4       C     0.96875      0.888888     0.666667     0
C1       C     0            0            0.0277783    0
C2       C     0.03125      0            0.111112     0
C3       C     0            0            0.138888     0
C4       C     0.03125      0            0.055555     0
C1       C     0            0            0.194445     0
C2       C     0.03125      0            0.277778     0
C3       C     0            0            0.305555     0
C4       C     0.03125      0            0.222222     0
C1       C     0            0            0.361112     0
C2       C     0.03125      0            0.444445     0
C3       C     0            0            0.472222     0
C4       C     0.03125      0            0.388888     0
C1       C     0            0            0.527778     0
C2       C     0.03125      0            0.611112     0
C3       C     0            0            0.638888     0
C4       C     0.03125      0            0.555555     0
C1       C     0            0            0.694445     0
C2       C     0.03125      0            0.777778     0
C3       C     0            0            0.805555     0
C4       C     0.03125      0            0.722222     0
C1       C     0            0            0.861112     0
C2       C     0.03125      0            0.944445     0
C3       C     0            0            0.972222     0
C4       C     0.03125      0            0.888888     0
C1       C     0            0.333333     0.0277783    0
C2       C     0.03125      0.333333     0.111112     0
C3       C     0            0.333333     0.138888     0
C4       C     0.03125      0.333333     0.055555     0
C1       C     0            0.333333     0.194445     0
C2       C     0.03125      0.333333     0.277778     0
C3       C     0            0.333333     0.305555     0
C4       C     0.03125      0.333333     0.222222     0
C1       C     0            0.333333     0.361112     0
C2       C     0.03125      0.333333     0.444445     0
C3       C     0            0.333333     0.472222     0
C4       C     0.03125      0.333333     0.388888     0
C1       C     0            0.333333     0.527778     0
C2       C     0.03125      0.333333     0.611112     0
C3       C     0            0.333333     0.638888     0
C4       C     0.03125      0.333333     0.555555     0
C1       C     0            0.333333     0.694445     0
C2       C     0.03125      0.333333     0.777778     0
C3       C     0            0.333333     0.805555     0
C4       C     0.03125      0.333333     0.722222     0
C1       C     0            0.333333     0.861112     0
C2       C     0.03125      0.333333     0.944445     0
C3       C     0            0.333333     0.972222     0
C4       C     0.03125      0.333333     0.888888     0
C1       C     0            0.666667     0.0277783    0
C2       C     0.03125      0.666667     0.111112     0
C3       C     0            0.666667     0.138888     0
C4       C     0.03125      0.666667     0.055555     0
C1       C     0            0.666667     0.194445     0
C2       C     0.03125      0.666667     0.277778     0
C3       C     0            0.666667     0.305555     0
C4       C     0.03125      0.666667     0.222222     0
C1       C     0            0.666667     0.361112     0
C2       C     0.03125      0.666667     0.444445     0
C3       C     0            0.666667     0.472222     0
C4       C     0.03125      0.666667     0.388888     0
C1       C     0            0.666667     0.527778     0
C2       C     0.03125      0.666667     0.611112     0
C3       C     0            0.666667     0.638888     0
C4       C     0.03125      0.666667     0.555555     0
C1       C     0            0.666667     0.694445     0
C2       C     0.03125      0.666667     0.777778     0
C3       C     0            0.666667     0.805555     0
C4       C     0.03125      0.666667     0.722222     0
C1       C     0            0.666667     0.861112     0
C2       C     0.03125      0.666667     0.944445     0
C3       C     0            0.666667     0.972222     0
C4       C     0.03125      0.666667     0.888888     0
C1       C     0.0625       0            0.0277783    0
C2       C     0.09375      0            0.111112     0
C3       C     0.0625       0            0.138888     0
C4       C     0.09375      0            0.055555     0
C1       C     0.0625       0            0.194445     0
C2       C     0.09375      0            0.277778     0
C3       C     0.0625       0            0.305555     0
C4       C     0.09375      0            0.222222     0
C1       C     0.0625       0            0.361112     0
C2       C     0.09375      0            0.444445     0
C3       C     0.0625       0            0.472222     0
C4       C     0.09375      0            0.388888     0
C1       C     0.0625       0            0.527778     0
C2       C     0.09375      0            0.611112     0
C3       C     0.0625       0            0.638888     0
C4       C     0.09375      0            0.555555     0
C1       C     0.0625       0            0.694445     0
C2       C     0.09375      0            0.777778     0
C3       C     0.0625       0            0.805555     0
C4       C     0.09375      0            0.722222     0
C1       C     0.0625       0            0.861112     0
C2       C     0.09375      0            0.944445     0
C3       C     0.0625       0            0.972222     0
C4       C     0.09375      0            0.888888     0
C1       C     0.0625       0.333333     0.0277783    0
C2       C     0.09375      0.333333     0.111112     0
C3       C     0.0625       0.333333     0.138888     0
C4       C     0.09375      0.333333     0.055555     0
C1       C     0.0625       0.333333     0.194445     0
C2       C     0.09375      0.333333     0.277778     0
C3       C     0.0625       0.333333     0.305555     0
C4       C     0.09375      0.333333     0.222222     0
C1       C     0.0625       0.333333     0.361112     0
C2       C     0.09375      0.333333     0.444445     0
C3       C     0.0625       0.333333     0.472222     0
C4       C     0.09375      0.333333     0.388888     0
C1       C     0.0625       0.333333     0.527778     0
C2       C     0.09375      0.333333     0.611112     0
C3       C     0.0625       0.333333     0.638888     0
C4       C     0.09375      0.333333     0.555555     0
C1       C     0.0625       0.333333     0.694445     0
C2       C     0.09375      0.333333     0.777778     0
C3       C     0.0625       0.333333     0.805555     0
C4       C     0.09375      0.333333     0.722222     0
C1       C     0.0625       0.333333     0.861112     0
C2       C     0.09375      0.333333     0.944445     0
C3       C     0.0625       0.333333     0.972222     0
C4       C     0.09375      0.333333     0.888888     0
C1       C     0.0625       0.666667     0.0277783    0
C2       C     0.09375      0.666667     0.111112     0
C3       C     0.0625       0.666667     0.138888     0
C4       C     0.09375      0.666667     0.055555     0
C1       C     0.0625       0.666667     0.194445     0
C2       C     0.09375      0.666667     0.277778     0
C3       C     0.0625       0.666667     0.305555     0
C4       C     0.09375      0.666667     0.222222     0
C1       C     0.0625       0.666667     0.361112     0
C2       C     0.09375      0.666667     0.444445     0
C3       C     0.0625       0.666667     0.472222     0
C4       C     0.09375      0.666667     0.388888     0
C1       C     0.0625       0.666667     0.527778     0
C2       C     0.09375      0.666667     0.611112     0
C3       C     0.0625       0.666667     0.638888     0
C4       C     0.09375      0.666667     0.555555     0
C1       C     0.0625       0.666667     0.694445     0
C2       C     0.09375      0.666667     0.777778     0
C3       C     0.0625       0.666667     0.805555     0
C4       C     0.09375      0.666667     0.722222     0
C1       C     0.0625       0.666667     0.861112     0
C2       C     0.09375      0.666667     0.944445     0
C3       C     0.0625       0.666667     0.972222     0
C4       C     0.09375      0.666667     0.888888     0
C1       C     0.125        0            0.0277783    0
C2       C     0.15625      0            0.111112     0
C3       C     0.125        0            0.138888     0
C4       C     0.15625      0            0.055555     0
C1       C     0.125        0            0.194445     0
C2       C     0.15625      0            0.277778     0
C3       C     0.125        0            0.305555     0
C4       C     0.15625      0            0.222222     0
C1       C     0.125        0            0.361112     0
C2       C     0.15625      0            0.444445     0
C3       C     0.125        0            0.472222     0
C4       C     0.15625      0            0.388888     0
C1       C     0.125        0            0.527778     0
C2       C     0.15625      0            0.611112     0
C3       C     0.125        0            0.638888     0
C4       C     0.15625      0            0.555555     0
C1       C     0.125        0            0.694445     0
C2       C     0.15625      0            0.777778     0
C3       C     0.125        0            0.805555     0
C4       C     0.15625      0            0.722222     0
C1       C     0.125        0            0.861112     0
C2       C     0.15625      0            0.944445     0
C3       C     0.125        0            0.972222     0
C4       C     0.15625      0            0.888888     0
C1       C     0.125        0.333333     0.0277783    0
C2       C     0.15625      0.333333     0.111112     0
C3       C     0.125        0.333333     0.138888     0
C4       C     0.15625      0.333333     0.055555     0
C1       C     0.125        0.333333     0.194445     0
C2       C     0.15625      0.333333     0.277778     0
C3       C     0.125        0.333333     0.305555     0
C4       C     0.15625      0.333333     0.222222     0
C1       C     0.125        0.333333     0.361112     0
C2       C     0.15625      0.333333     0.444445     0
C3       C     0.125        0.333333     0.472222     0
C4       C     0.15625      0.333333     0.388888     0
C1       C     0.125        0.333333     0.527778     0
C2       C     0.15625      0.333333     0.611112     0
C3       C     0.125        0.333333     0.638888     0
C4       C     0.15625      0.333333     0.555555     0
C1       C     0.125        0.333333     0.694445     0
C2       C     0.15625      0.333333     0.777778     0
C3       C     0.125        0.333333     0.805555     0
C4       C     0.15625      0.333333     0.722222     0
C1       C     0.125        0.333333     0.861112     0
C2       C     0.15625      0.333333     0.944445     0
C3       C     0.125        0.333333     0.972222     0
C4       C     0.15625      0.333333     0.888888     0
C1       C     0.125        0.666667     0.0277783    0
C2       C     0.15625      0.666667     0.111112     0
C3       C     0.125        0.666667     0.138888     0
C4       C     0.15625      0.666667     0.055555     0
C1       C     0.125        0.666667     0.194445     0
C2       C     0.15625      0.666667     0.277778     0
C3       C     0.125        0.666667     0.305555     0
C4       C     0.15625      0.666667     0.222222     0
C1       C     0.125        0.666667     0.361112     0
C2       C     0.15625      0.666667     0.444445     0
C3       C     0.125        0.666667     0.472222     0
C4       C     0.15625      0.666667     0.388888     0
C1       C     0.125        0.666667     0.527778     0
C2       C     0.15625      0.666667     0.611112     0
C3       C     0.125        0.666667     0.638888     0
C4       C     0.15625      0.666667     0.555555     0
C1       C     0.125        0.666667     0.694445     0
C2       C     0.15625      0.666667     0.777778     0
C3       C     0.125        0.666667     0.805555     0
C4       C     0.15625      0.666667     0.722222     0
C1       C     0.125        0.666667     0.861112     0
C2       C     0.15625      0.666667     0.944445     0
C3       C     0.125        0.666667     0.972222     0
C4       C     0.15625      0.666667     0.888888     0
C1       C     0.1875       0            0.0277783    0
C2       C     0.21875      0            0.111112     0
C3       C     0.1875       0            0.138888     0
C4       C     0.21875      0            0.055555     0
C1       C     0.1875       0            0.194445     0
C2       C     0.21875      0            0.277778     0
C3       C     0.1875       0            0.305555     0
C4       C     0.21875      0            0.222222     0
C1       C     0.1875       0            0.361112     0
C2       C     0.21875      0            0.444445     0
C3       C     0.1875       0            0.472222     0
C4       C     0.21875      0            0.388888     0
C1       C     0.1875       0            0.527778     0
C2       C     0.21875      0            0.611112     0
C3       C     0.1875       0            0.638888     0
C4       C     0.21875      0            0.555555     0
C1       C     0.1875       0            0.694445     0
C2       C     0.21875      0            0.777778     0
C3       C     0.1875       0            0.805555     0
C4       C     0.21875      0            0.722222     0
C1       C     0.1875       0            0.861112     0
C2       C     0.21875      0            0.944445     0
C3       C     0.1875       0            0.972222     0
C4       C     0.21875      0            0.888888     0
C1       C     0.1875       0.333333     0.0277783    0
C2       C     0.21875      0.333333     0.111112     0
C3       C     0.1875       0.333333     0.138888     0
C4       C     0.21875      0.333333     0.055555     0
C1       C     0.1875       0.333333     0.194445     0
C2       C     0.21875      0.333333     0.277778     0
C3       C     0.1875       0.333333     0.305555     0
C4       C     0.21875      0.333333     0.222222     0
C1       C     0.1875       0.333333     0.361112     0
C2       C     0.21875      0.333333     0.444445     0
C3       C     0.1875       0.333333     0.472222     0
C4       C     0.21875      0.333333     0.388888     0
C1       C     0.1875       0.333333     0.527778     0
C2       C     0.21875      0.333333     0.611112     0
C3       C     0.1875       0.333333     0.638888     0
C4       C     0.21875      0.333333     0.555555     0
C1       C     0.1875       0.333333     0.694445     0
C2       C     0.21875      0.333333     0.777778     0
C3       C     0.1875       0.333333     0.805555     0
C4       C     0.21875      0.333333     0.722222     0
C1       C     0.1875       0.333333     0.861112     0
C2       C     0.21875      0.333333     0.944445     0
C3       C     0.1875       0.333333     0.972222     0
C4       C     0.21875      0.333333     0.888888     0
C1       C     0.1875       0.666667     0.0277783    0
C2       C     0.21875      0.666667     0.111112     0
C3       C     0.1875       0.666667     0.138888     0
C4       C     0.21875      0.666667     0.055555     0
C1       C     0.1875       0.666667     0.194445     0
C2       C     0.21875      0.666667     0.277778     0
C3       C     0.1875       0.666667     0.305555     0
C4       C     0.21875      0.666667     0.222222     0
C1       C     0.1875       0.666667     0.361112     0
C2       C     0.21875      0.666667     0.444445     0
C3       C     0.1875       0.666667     0.472222     0
C4       C     0.21875      0.666667     0.388888     0
C1       C     0.1875       0.666667     0.527778     0
C2       C     0.21875      0.666667     0.611112     0
C3       C     0.1875       0.666667     0.638888     0
C4       C     0.21875      0.666667     0.555555     0
C1       C     0.1875       0.666667     0.694445     0
C2       C     0.21875      0.666667     0.777778     0
C3       C     0.1875       0.666667     0.805555     0
C4       C     0.21875      0.666667     0.722222     0
C1       C     0.1875       0.666667     0.861112     0
C2       C     0.21875      0.666667     0.944445     0
C3       C     0.1875       0.666667     0.972222     0
C4       C     0.21875      0.666667     0.888888     0
C1       C     0.25         0            0.0277783    0
C2       C     0.28125      0            0.111112     0
C3       C     0.25         0            0.138888     0
C4       C     0.28125      0            0.055555     0
C1       C     0.25         0            0.194445     0
C2       C     0.28125      0            0.277778     0
C3       C     0.25         0            0.305555     0
C4       C     0.28125      0            0.222222     0
C1       C     0.25         0            0.361112     0
C2       C     0.28125      0            0.444445     0
C3       C     0.25         0            0.472222     0
C4       C     0.28125      0            0.388888     0
C1       C     0.25         0            0.527778     0
C2       C     0.28125      0            0.611112     0
C3       C     0.25         0            0.638888     0
C4       C     0.28125      0            0.555555     0
C1       C     0.25         0            0.694445     0
C2       C     0.28125      0            0.777778     0
C3       C     0.25         0            0.805555     0
C4       C     0.28125      0            0.722222     0
C1       C     0.25         0            0.861112     0
C2       C     0.28125      0            0.944445     0
C3       C     0.25         0            0.972222     0
C4       C     0.28125      0            0.888888     0
C1       C     0.25         0.333333     0.0277783    0
C2       C     0.28125      0.333333     0.111112     0
C3       C     0.25         0.333333     0.138888     0
C4       C     0.28125      0.333333     0.055555     0
C1       C     0.25         0.333333     0.194445     0
C2       C     0.28125      0.333333     0.277778     0
C3       C     0.25         0.333333     0.305555     0
C4       C     0.28125      0.333333     0.222222     0
C1       C     0.25         0.333333     0.361112     0
C2       C     0.28125      0.333333     0.444445     0
C3       C     0.25         0.333333     0.472222     0
C4       C     0.28125      0.333333     0.388888     0
C1       C     0.25         0.333333     0.527778     0
C2       C     0.28125      0.333333     0.611112     0
C3       C     0.25         0.333333     0.638888     0
C4       C     0.28125      0.333333     0.555555     0
C1       C     0.25         0.333333     0.694445     0
C2       C     0.28125      0.333333     0.777778     0
C3       C     0.25         0.333333     0.805555     0
C4       C     0.28125      0.333333     0.722222     0
C1       C     0.25         0.333333     0.861112     0
C2       C     0.28125      0.333333     0.944445     0
C3       C     0.25         0.333333     0.972222     0
C4       C     0.28125      0.333333     0.888888     0
C1       C     0.25         0.666667     0.0277783    0
C2       C     0.28125      0.666667     0.111112     0
C3       C     0.25         0.666667     0.138888     0
C4       C     0.28125      0.666667     0.055555     0
C1       C     0.25         0.666667     0.194445     0
C2       C     0.28125      0.666667     0.277778     0
C3       C     0.25         0.666667     0.305555     0
C4       C     0.28125      0.666667     0.222222     0
C1       C     0.25         0.666667     0.361112     0
C2       C     0.28125      0.666667     0.444445     0
C3       C     0.25         0.666667     0.472222     0
C4       C     0.28125      0.666667     0.388888     0
C1       C     0.25         0.666667     0.527778     0
C2       C     0.28125      0.666667     0.611112     0
C3       C     0.25         0.666667     0.638888     0
C4       C     0.28125      0.666667     0.555555     0
C1       C     0.25         0.666667     0.694445     0
C2       C     0.28125      0.666667     0.777778     0
C3       C     0.25         0.666667     0.805555     0
C4       C     0.28125      0.666667     0.722222     0
C1       C     0.25         0.666667     0.861112     0
C2       C     0.28125      0.666667     0.944445     0
C3       C     0.25         0.666667     0.972222     0
C4       C     0.28125      0.666667     0.888888     0
C1       C     0.3125       0            0.0277783    0
C2       C     0.34375      0            0.111112     0
C3       C     0.3125       0            0.138888     0
C4       C     0.34375      0            0.055555     0
C1       C     0.3125       0            0.194445     0
C2       C     0.34375      0            0.277778     0
C3       C     0.3125       0            0.305555     0
C4       C     0.34375      0            0.222222     0
C1       C     0.3125       0            0.361112     0
C2       C     0.34375      0            0.444445     0
C3       C     0.3125       0            0.472222     0
C4       C     0.34375      0            0.388888     0
C1       C     0.3125       0            0.527778     0
C2       C     0.34375      0            0.611112     0
C3       C     0.3125       0            0.638888     0
C4       C     0.34375      0            0.555555     0
C1       C     0.3125       0            0.694445     0
C2       C     0.34375      0            0.777778     0
C3       C     0.3125       0            0.805555     0
C4       C     0.34375      0            0.722222     0
C1       C     0.3125       0            0.861112     0
C2       C     0.34375      0            0.944445     0
C3       C     0.3125       0            0.972222     0
C4       C     0.34375      0            0.888888     0
C1       C     0.3125       0.333333     0.0277783    0
C2       C     0.34375      0.333333     0.111112     0
C3       C     0.3125       0.333333     0.138888     0
C4       C     0.34375      0.333333     0.055555     0
C1       C     0.3125       0.333333     0.194445     0
C2       C     0.34375      0.333333     0.277778     0
C3       C     0.3125       0.333333     0.305555     0
C4       C     0.34375      0.333333     0.222222     0
C1       C     0.3125       0.333333     0.361112     0
C2       C     0.34375      0.333333     0.444445     0
C3       C     0.3125       0.333333     0.472222     0
C4       C     0.34375      0.333333     0.388888     0
C1       C     0.3125       0.333333     0.527778     0
C2       C     0.34375      0.333333     0.611112     0
C3       C     0.3125       0.333333     0.638888     0
C4       C     0.34375      0.333333     0.555555     0
C1       C     0.3125       0.333333     0.694445     0
C2       C     0.34375      0.333333     0.777778     0
C3       C     0.3125       0.333333     0.805555     0
C4       C     0.34375      0.333333     0.722222     0
C1       C     0.3125       0.333333     0.861112     0
C2       C     0.34375      0.333333     0.944445     0
C3       C     0.3125       0.333333     0.972222     0
C4       C     0.34375      0.333333     0.888888     0
C1       C     0.3125       0.666667     0.0277783    0
C2       C     0.34375      0.666667     0.111112     0
C3       C     0.3125       0.666667     0.138888     0
C4       C     0.34375      0.666667     0.055555     0
C1       C     0.3125       0.666667     0.194445     0
C2       C     0.34375      0.666667     0.277778     0
C3       C     0.3125       0.666667     0.305555     0
C4       C     0.34375      0.666667     0.222222     0
C1       C     0.3125       0.666667     0.361112     0
C2       C     0.34375      0.666667     0.444445     0
C3       C     0.3125       0.666667     0.472222     0
C4       C     0.34375      0.666667     0.388888     0
C1       C     0.3125       0.666667     0.527778     0
C2       C     0.34375      0.666667     0.611112     0
C3       C     0.3125       0.666667     0.638888     0
C4       C     0.34375      0.666667     0.555555     0
C1       C     0.3125       0.666667     0.694445     0
C2       C     0.34375      0.666667     0.777778     0
C3       C     0.3125       0.666667     0.805555     0
C4       C     0.34375      0.666667     0.722222     0
C1       C     0.3125       0.666667     0.861112     0
C2       C     0.34375      0.666667     0.944445     0
C3       C     0.3125       0.666667     0.972222     0
C4       C     0.34375      0.666667     0.888888     0
C1       C     0.375        0            0.0277783    0
C2       C     0.40625      0            0.111112     0
C3       C     0.375        0            0.138888     0
C4       C     0.40625      0            0.055555     0
C1       C     0.375        0            0.194445     0
C2       C     0.40625      0            0.277778     0
C3       C     0.375        0            0.305555     0
C4       C     0.40625      0            0.222222     0
C1       C     0.375        0            0.361112     0
C2       C     0.40625      0            0.444445     0
C3       C     0.375        0            0.472222     0
C4       C     0.40625      0            0.388888     0
C1       C     0.375        0            0.527778     0
C2       C     0.40625      0            0.611112     0
C3       C     0.375        0            0.638888     0
C4       C     0.40625      0            0.555555     0
C1       C     0.375        0            0.694445     0
C2       C     0.40625      0            0.777778     0
C3       C     0.375        0            0.805555     0
C4       C     0.40625      0            0.722222     0
C1       C     0.375        0            0.861112     0
C2       C     0.40625      0            0.944445     0
C3       C     0.375        0            0.972222     0
C4       C     0.40625      0            0.888888     0
C1       C     0.375        0.333333     0.0277783    0
C2       C     0.40625      0.333333     0.111112     0
C3       C     0.375        0.333333     0.138888     0
C4       C     0.40625      0.333333     0.055555     0
C1       C     0.375        0.333333     0.194445     0
C2       C     0.40625      0.333333     0.277778     0
C3       C     0.375        0.333333     0.305555     0
C4       C     0.40625      0.333333     0.222222     0
C1       C     0.375        0.333333     0.361112     0
C2       C     0.40625      0.333333     0.444445     0
C3       C     0.375        0.333333     0.472222     0
C4       C     0.40625      0.333333     0.388888     0
C1       C     0.375        0.333333     0.527778     0
C2       C     0.40625      0.333333     0.611112     0
C3       C     0.375        0.333333     0.638888     0
C4       C     0.40625      0.333333     0.555555     0
C1       C     0.375        0.333333     0.694445     0
C2       C     0.40625      0.333333     0.777778     0
C3       C     0.375        0.333333     0.805555     0
C4       C     0.40625      0.333333     0.722222     0
C1       C     0.375        0.333333     0.861112     0
C2       C     0.40625      0.333333     0.944445     0
C3       C     0.375        0.333333     0.972222     0
C4       C     0.40625      0.333333     0.888888     0
C1       C     0.375        0.666667     0.0277783    0
C2       C     0.40625      0.666667     0.111112     0
C3       C     0.375        0.666667     0.138888     0
C4       C     0.40625      0.666667     0.055555     0
C1       C     0.375        0.666667     0.194445     0
C2       C     0.40625      0.666667     0.277778     0
C3       C     0.375        0.666667     0.305555     0
C4       C     0.40625      0.666667     0.222222     0
C1       C     0.375        0.666667     0.361112     0
C2       C     0.40625      0.666667     0.444445     0
C3       C     0.375        0.666667     0.472222     0
C4       C     0.40625      0.666667     0.388888     0
C1       C     0.375        0.666667     0.527778     0
C2       C     0.40625      0.666667     0.611112     0
C3       C     0.375        0.666667     0.638888     0
C4       C     0.40625      0.666667     0.555555     0
C1       C     0.375        0.666667     0.694445     0
C2       C     0.40625      0.666667     0.777778     0
C3       C     0.375        0.666667     0.805555     0
C4       C     0.40625      0.666667     0.722222     0
C1       C     0.375        0.666667     0.861112     0
C2       C     0.40625      0.666667     0.944445     0
C3       C     0.375        0.666667     0.972222     0
C4       C     0.40625      0.666667     0.888888     0
C1       C     0.4375       0            0.0277783    0
C2       C     0.46875      0            0.111112     0
C3       C     0.4375       0            0.138888     0
C4       C     0.46875      0            0.055555     0
C1       C     0.4375       0            0.194445     0
C2       C     0.46875      0            0.277778     0
C3       C     0.4375       0            0.305555     0
C4       C     0.46875      0            0.222222     0
C1       C     0.4375       0            0.361112     0
C2       C     0.46875      0            0.444445     0
C3       C     0.4375       0            0.472222     0
C4       C     0.46875      0            0.388888     0
C1       C     0.4375       0            0.527778     0
C2       C     0.46875      0            0.611112     0
C3       C     0.4375       0            0.638888     0
C4       C     0.46875      0            0.555555     0
C1       C     0.4375       0            0.694445     0
C2       C     0.46875      0            0.777778     0
C3       C     0.4375       0            0.805555     0
C4       C     0.46875      0            0.722222     0
C1       C     0.4375       0            0.861112     0
C2       C     0.46875      0            0.944445     0
C3       C     0.4375       0            0.972222     0
C4       C     0.46875      0            0.888888     0
C1       C     0.4375       0.333333     0.0277783    0
C2       C     0.46875      0.333333     0.111112     0
C3       C     0.4375       0.333333     0.138888     0
C4       C     0.46875      0.333333     0.055555     0
C1       C     0.4375       0.333333     0.194445     0
C2       C     0.46875      0.333333     0.277778     0
C3       C     0.4375       0.333333     0.305555     0
C4       C     0.46875      0.333333     0.222222     0
C1       C     0.4375       0.333333     0.361112     0
C2       C     0.46875      0.333333     0.444445     0
C3       C     0.4375       0.333333     0.472222     0
C4       C     0.46875      0.333333     0.388888     0
C1       C     0.4375       0.333333     0.527778     0
C2       C     0.46875      0.333333     0.611112     0
C3       C     0.4375       0.333333     0.638888     0
C4       C     0.46875      0.333333     0.555555     0
C1       C     0.4375       0.333333     0.694445     0
C2       C     0.46875      0.333333     0.777778     0
C3       C     0.4375       0.333333     0.805555     0
C4       C     0.46875      0.333333     0.722222     0
C1       C     0.4375       0.333333     0.861112     0
C2       C     0.46875      0.333333     0.944445     0
C3       C     0.4375       0.333333     0.972222     0
C4       C     0.46875      0.333333     0.888888     0
C1       C     0.4375       0.666667     0.0277783    0
C2       C     0.46875      0.666667     0.111112     0
C3       C     0.4375       0.666667     0.138888     0
C4       C     0.46875      0.666667     0.055555     0
C1       C     0.4375       0.666667     0.194445     0
C2       C     0.46875      0.666667     0.277778     0
C3       C     0.4375       0.666667     0.305555     0
C4       C     0.46875      0.666667     0.222222     0
C1       C     0.4375       0.666667     0.361112     0
C2       C     0.46875      0.666667     0.444445     0
C3       C     0.4375       0.666667     0.472222     0
C4       C     0.46875      0.666667     0.388888     0
C1       C     0.4375       0.666667     0.527778     0
C2       C     0.46875      0.666667     0.611112     0
C3       C     0.4375       0.666667     0.638888     0
C4       C     0.46875      0.666667     0.555555     0
C1       C     0.4375       0.666667     0.694445     0
C2       C     0.46875      0.666667     0.777778     0
C3       C     0.4375       0.666667     0.805555     0
C4       C     0.46875      0.666667     0.722222     0
C1       C     0.4375       0.666667     0.861112     0
C2       C     0.46875      0.666667     0.944445     0
C3       C     0.4375       0.666667     0.972222     0
C4       C     0.46875      0.666667     0.888888     0
C1       C     0.5          0            0.0277783    0
C2       C     0.53125      0            0.111112     0
C3       C     0.5          0            0.138888     0
C4       C     0.53125      0            0.055555     0
C1       C     0.5          0            0.194445     0
C2       C     0.53125      0            0.277778     0
C3       C     0.5          0            0.305555     0
C4       C     0.53125      0            0.222222     0
C1       C     0.5          0            0.361112     0
C2       C     0.53125      0            0.444445     0
C3       C     0.5          0            0.472222     0
C4       C     0.53125      0            0.388888     0
C1       C     0.5          0            0.527778     0
C2       C     0.53125      0            0.611112     0
C3       C     0.5          0            0.638888     0
C4       C     0.53125      0            0.555555     0
C1       C     0.5          0            0.694445     0
C2       C     0.53125      0            0.777778     0
C3       C     0.5          0            0.805555     0
C4       C     0.53125      0            0.722222     0
C1       C     0.5          0            0.861112     0
C2       C     0.53125      0            0.944445     0
C3       C     0.5          0            0.972222     0
C4       C     0.53125      0            0.888888     0
C1       C     0.5          0.333333     0.0277783    0
C2       C     0.53125      0.333333     0.111112     0
C3       C     0.5          0.333333     0.138888     0
C4       C     0.53125      0.333333     0.055555     0
C1       C     0.5          0.333333     0.194445     0
C2       C     0.53125      0.333333     0.277778     0
C3       C     0.5          0.333333     0.305555     0
C4       C     0.53125      0.333333     0.222222     0
C1       C     0.5          0.333333     0.361112     0
C2       C     0.53125      0.333333     0.444445     0
C3       C     0.5          0.333333     0.472222     0
C4       C     0.53125      0.333333     0.388888     0
C1       C     0.5          0.333333     0.527778     0
C2       C     0.53125      0.333333     0.611112     0
C3       C     0.5          0.333333     0.638888     0
C4       C     0.53125      0.333333     0.555555     0
C1       C     0.5          0.333333     0.694445     0
C2       C     0.53125      0.333333     0.777778     0
C3       C     0.5          0.333333     0.805555     0
C4       C     0.53125      0.333333     0.722222     0
C1       C     0.5          0.333333     0.861112     0
C2       C     0.53125      0.333333     0.944445     0
C3       C     0.5          0.333333     0.972222     0
C4       C     0.53125      0.333333     0.888888     0
C1       C     0.5          0.666667     0.0277783    0
C2       C     0.53125      0.666667     0.111112     0
C3       C     0.5          0.666667     0.138888     0
C4       C     0.53125      0.666667     0.055555     0
C1       C     0.5          0.666667     0.194445     0
C2       C     0.53125      0.666667     0.277778     0
C3       C     0.5          0.666667     0.305555     0
C4       C     0.53125      0.666667     0.222222     0
C1       C     0.5          0.666667     0.361112     0
C2       C     0.53125      0.666667     0.444445     0
C3       C     0.5          0.666667     0.472222     0
C4       C     0.53125      0.666667     0.388888     0
C1       C     0.5          0.666667     0.527778     0
C2       C     0.53125      0.666667     0.611112     0
C3       C     0.5          0.666667     0.638888     0
C4       C     0.53125      0.666667     0.555555     0
C1       C     0.5          0.666667     0.694445     0
C2       C     0.53125      0.666667     0.777778     0
C3       C     0.5          0.666667     0.805555     0
C4       C     0.53125      0.666667     0.722222     0
C1       C     0.5          0.666667     0.861112     0
C2       C     0.53125      0.666667     0.944445     0
C3       C     0.5          0.666667     0.972222     0
C4       C     0.53125      0.666667     0.888888     0
C1       C     0.5625       0            0.0277783    0
C2       C     0.59375      0            0.111112     0
C3       C     0.5625       0            0.138888     0
C4       C     0.59375      0            0.055555     0
C1       C     0.5625       0            0.194445     0
C2       C     0.59375      0            0.277778     0
C3       C     0.5625       0            0.305555     0
C4       C     0.59375      0            0.222222     0
C1       C     0.5625       0            0.361112     0
C2       C     0.59375      0            0.444445     0
C3       C     0.5625       0            0.472222     0
C4       C     0.59375      0            0.388888     0
C1       C     0.5625       0            0.527778     0
C2       C     0.59375      0            0.611112     0
C3       C     0.5625       0            0.638888     0
C4       C     0.59375      0            0.555555     0
C1       C     0.5625       0            0.694445     0
C2       C     0.59375      0            0.777778     0
C3       C     0.5625       0            0.805555     0
C4       C     0.59375      0            0.722222     0
C1       C     0.5625       0            0.861112     0
C2       C     0.59375      0            0.944445     0
C3       C     0.5625       0            0.972222     0
C4       C     0.59375      0            0.888888     0
C1       C     0.5625       0.333333     0.0277783    0
C2       C     0.59375      0.333333     0.111112     0
C3       C     0.5625       0.333333     0.138888     0
C4       C     0.59375      0.333333     0.055555     0
C1       C     0.5625       0.333333     0.194445     0
C2       C     0.59375      0.333333     0.277778     0
C3       C     0.5625       0.333333     0.305555     0
C4       C     0.59375      0.333333     0.222222     0
C1       C     0.5625       0.333333     0.361112     0
C2       C     0.59375      0.333333     0.444445     0
C3       C     0.5625       0.333333     0.472222     0
C4       C     0.59375      0.333333     0.388888     0
C1       C     0.5625       0.333333     0.527778     0
C2       C     0.59375      0.333333     0.611112     0
C3       C     0.5625       0.333333     0.638888     0
C4       C     0.59375      0.333333     0.555555     0
C1       C     0.5625       0.333333     0.694445     0
C2       C     0.59375      0.333333     0.777778     0
C3       C     0.5625       0.333333     0.805555     0
C4       C     0.59375      0.333333     0.722222     0
C1       C     0.5625       0.333333     0.861112     0
C2       C     0.59375      0.333333     0.944445     0
C3       C     0.5625       0.333333     0.972222     0
C4       C     0.59375      0.333333     0.888888     0
C1       C     0.5625       0.666667     0.0277783    0
C2       C     0.59375      0.666667     0.111112     0
C3       C     0.5625       0.666667     0.138888     0
C4       C     0.59375      0.666667     0.055555     0
C1       C     0.5625       0.666667     0.194445     0
C2       C     0.59375      0.666667     0.277778     0
C3       C     0.5625       0.666667     0.305555     0
C4       C     0.59375      0.666667     0.222222     0
C1       C     0.5625       0.666667     0.361112     0
C2       C     0.59375      0.666667     0.444445     0
C3       C     0.5625       0.666667     0.472222     0
C4       C     0.59375      0.666667     0.388888     0
C1       C     0.5625       0.666667     0.527778     0
C2       C     0.59375      0.666667     0.611112     0
C3       C     0.5625       0.666667     0.638888     0
C4       C     0.59375      0.666667     0.555555     0
C1       C     0.5625       0.666667     0.694445     0
C2       C     0.59375      0.666667     0.777778     0
C3       C     0.5625       0.666667     0.805555     0
C4       C     0.59375      0.666667     0.722222     0
C1       C     0.5625       0.666667     0.861112     0
C2       C     0.59375      0.666667     0.944445     0
C3       C     0.5625       0.666667     0.972222     0
C4       C     0.59375      0.666667     0.888888     0
C1       C     0.625        0            0.0277783    0
C2       C     0.65625      0            0.111112     0
C3       C     0.625        0            0.138888     0
C4       C     0.65625      0            0.055555     0
C1       C     0.625        0            0.194445     0
C2       C     0.65625      0            0.277778     0
C3       C     0.625        0            0.305555     0
C4       C     0.65625      0            0.222222     0
C1       C     0.625        0            0.361112     0
C2       C     0.65625      0            0.444445     0
C3       C     0.625        0            0.472222     0
C4       C     0.65625      0            0.388888     0
C1       C     0.625        0            0.527778     0
C2       C     0.65625      0            0.611112     0
C3       C     0.625        0            0.638888     0
C4       C     0.65625      0            0.555555     0
C1       C     0.625        0            0.694445     0
C2       C     0.65625      0            0.777778     0
C3       C     0.625        0            0.805555     0
C4       C     0.65625      0            0.722222     0
C1       C     0.625        0            0.861112     0
C2       C     0.65625      0            0.944445     0
C3       C     0.625        0            0.972222     0
C4       C     0.65625      0            0.888888     0
C1       C     0.625        0.333333     0.0277783    0
C2       C     0.65625      0.333333     0.111112     0
C3       C     0.625        0.333333     0.138888     0
C4       C     0.65625      0.333333     0.055555     0
C1       C     0.625        0.333333     0.194445     0
C2       C     0.65625      0.333333     0.277778     0
C3       C     0.625        0.333333     0.305555     0
C4       C     0.65625      0.333333     0.222222     0
C1       C     0.625        0.333333     0.361112     0
C2       C     0.65625      0.333333     0.444445     0
C3       C     0.625        0.333333     0.472222     0
C4       C     0.65625      0.333333     0.388888     0
C1       C     0.625        0.333333     0.527778     0
C2       C     0.65625      0.333333     0.611112     0
C3       C     0.625        0.333333     0.638888     0
C4       C     0.65625      0.333333     0.555555     0
C1       C     0.625        0.333333     0.694445     0
C2       C     0.65625      0.333333     0.777778     0
C3       C     0.625        0.333333     0.805555     0
C4       C     0.65625      0.333333     0.722222     0
C1       C     0.625        0.333333     0.861112     0
C2       C     0.65625      0.333333     0.944445     0
C3       C     0.625        0.333333     0.972222     0
C4       C     0.65625      0.333333     0.888888     0
C1       C     0.625        0.666667     0.0277783    0
C2       C     0.65625      0.666667     0.111112     0
C3       C     0.625        0.666667     0.138888     0
C4       C     0.65625      0.666667     0.055555     0
C1       C     0.625        0.666667     0.194445     0
C2       C     0.65625      0.666667     0.277778     0
C3       C     0.625        0.666667     0.305555     0
C4       C     0.65625      0.666667     0.222222     0
C1       C     0.625        0.666667     0.361112     0
C2       C     0.65625      0.666667     0.444445     0
C3       C     0.625        0.666667     0.472222     0
C4       C     0.65625      0.666667     0.388888     0
C1       C     0.625        0.666667     0.527778     0
C2       C     0.65625      0.666667     0.611112     0
C3       C     0.625        0.666667     0.638888     0
C4       C     0.65625      0.666667     0.555555     0
C1       C     0.625        0.666667     0.694445     0
C2       C     0.65625      0.666667     0.777778     0
C3       C     0.625        0.666667     0.805555     0
C4       C     0.65625      0.666667     0.722222     0
C1       C     0.625        0.666667     0.861112     0
C2       C     0.65625      0.666667     0.944445     0
C3       C     0.625        0.666667     0.972222     0
C4       C     0.65625      0.666667     0.888888     0
C1       C     0.6875       0            0.0277783    0
C2       C     0.71875      0            0.111112     0
C3       C     0.6875       0            0.138888     0
C4       C     0.71875      0            0.055555     0
C1       C     0.6875       0            0.194445     0
C2       C     0.71875      0            0.277778     0
C3       C     0.6875       0            0.305555     0
C4       C     0.71875      0            0.222222     0
C1       C     0.6875       0            0.361112     0
C2       C     0.71875      0            0.444445     0
C3       C     0.6875       0            0.472222     0
C4       C     0.71875      0            0.388888     0
C1       C     0.6875       0            0.527778     0
C2       C     0.71875      0            0.611112     0
C3       C     0.6875       0            0.638888     0
C4       C     0.71875      0            0.555555     0
C1       C     0.6875       0            0.694445     0
C2       C     0.71875      0            0.777778     0
C3       C     0.6875       0            0.805555     0
C4       C     0.71875      0            0.722222     0
C1       C     0.6875       0            0.861112     0
C2       C     0.71875      0            0.944445     0
C3       C     0.6875       0            0.972222     0
C4       C     0.71875      0            0.888888     0
C1       C     0.6875       0.333333     0.0277783    0
C2       C     0.71875      0.333333     0.111112     0
C3       C     0.6875       0.333333     0.138888     0
C4       C     0.71875      0.333333     0.055555     0
C1       C     0.6875       0.333333     0.194445     0
C2       C     0.71875      0.333333     0.277778     0
C3       C     0.6875       0.333333     0.305555     0
C4       C     0.71875      0.333333     0.222222     0
C1       C     0.6875       0.333333     0.361112     0
C2       C     0.71875      0.333333     0.444445     0
C3       C     0.6875       0.333333     0.472222     0
C4       C     0.71875      0.333333     0.388888     0
C1       C     0.6875       0.333333     0.527778     0
C2       C     0.71875      0.333333     0.611112     0
C3       C     0.6875       0.333333     0.638888     0
C4       C     0.71875      0.333333     0.555555     0
C1       C     0.6875       0.333333     0.694445     0
C2       C     0.71875      0.333333     0.777778     0
C3       C     0.6875       0.333333     0.805555     0
C4       C     0.71875      0.333333     0.722222     0
C1       C     0.6875       0.333333     0.861112     0
C2       C     0.71875      0.333333     0.944445     0
C3       C     0.6875       0.333333     0.972222     0
C4       C     0.71875      0.333333     0.888888     0
C1       C     0.6875       0.666667     0.0277783    0
C2       C     0.71875      0.666667     0.111112     0
C3       C     0.6875       0.666667     0.138888     0
C4       C     0.71875      0.666667     0.055555     0
C1       C     0.6875       0.666667     0.194445     0
C2       C     0.71875      0.666667     0.277778     0
C3       C     0.6875       0.666667     0.305555     0
C4       C     0.71875      0.666667     0.222222     0
C1       C     0.6875       0.666667     0.361112     0
C2       C     0.71875      0.666667     0.444445     0
C3       C     0.6875       0.666667     0.472222     0
C4       C     0.71875      0.666667     0.388888     0
C1       C     0.6875       0.666667     0.527778     0
C2       C     0.71875      0.666667     0.611112     0
C3       C     0.6875       0.666667     0.638888     0
C4       C     0.71875      0.666667     0.555555     0
C1       C     0.6875       0.666667     0.694445     0
C2       C     0.71875      0.666667     0.777778     0
C3       C     0.6875       0.666667     0.805555     0
C4       C     0.71875      0.666667     0.722222     0
C1       C     0.6875       0.666667     0.861112     0
C2       C     0.71875      0.666667     0.944445     0
C3       C     0.6875       0.666667     0.972222     0
C4       C     0.71875      0.666667     0.888888     0
C1       C     0.75         0            0.0277783    0
C2       C     0.78125      0            0.111112     0
C3       C     0.75         0            0.138888     0
C4       C     0.78125      0            0.055555     0
C1       C     0.75         0            0.194445     0
C2       C     0.78125      0            0.277778     0
C3       C     0.75         0            0.305555     0
C4       C     0.78125      0            0.222222     0
C1       C     0.75         0            0.361112     0
C2       C     0.78125      0            0.444445     0
C3       C     0.75         0            0.472222     0
C4       C     0.78125      0            0.388888     0
C1       C     0.75         0            0.527778     0
C2       C     0.78125      0            0.611112     0
C3       C     0.75         0            0.638888     0
C4       C     0.78125      0            0.555555     0
C1       C     0.75         0            0.694445     0
C2       C     0.78125      0            0.777778     0
C3       C     0.75         0            0.805555     0
C4       C     0.78125      0            0.722222     0
C1       C     0.75         0            0.861112     0
C2       C     0.78125      0            0.944445     0
C3       C     0.75         0            0.972222     0
C4       C     0.78125      0            0.888888     0
C1       C     0.75         0.333333     0.0277783    0
C2       C     0.78125      0.333333     0.111112     0
C3       C     0.75         0.333333     0.138888     0
C4       C     0.78125      0.333333     0.055555     0
C1       C     0.75         0.333333     0.194445     0
C2       C     0.78125      0.333333     0.277778     0
C3       C     0.75         0.333333     0.305555     0
C4       C     0.78125      0.333333     0.222222     0
C1       C     0.75         0.333333     0.361112     0
C2       C     0.78125      0.333333     0.444445     0
C3       C     0.75         0.333333     0.472222     0
C4       C     0.78125      0.333333     0.388888     0
C1       C     0.75         0.333333     0.527778     0
C2       C     0.78125      0.333333     0.611112     0
C3       C     0.75         0.333333     0.638888     0
C4       C     0.78125      0.333333     0.555555     0
C1       C     0.75         0.333333     0.694445     0
C2       C     0.78125      0.333333     0.777778     0
C3       C     0.75         0.333333     0.805555     0
C4       C     0.78125      0.333333     0.722222     0
C1       C     0.75         0.333333     0.861112     0
C2       C     0.78125      0.333333     0.944445     0
C3       C     0.75         0.333333     0.972222     0
C4       C     0.78125      0.333333     0.888888     0
C1       C     0.75         0.666667     0.0277783    0
C2       C     0.78125      0.666667     0.111112     0
C3       C     0.75         0.666667     0.138888     0
C4       C     0.78125      0.666667     0.055555     0
C1       C     0.75         0.666667     0.194445     0
C2       C     0.78125      0.666667     0.277778     0
C3       C     0.75         0.666667     0.305555     0
C4       C     0.78125      0.666667     0.222222     0
C1       C     0.75         0.666667     0.361112     0
C2       C     0.78125      0.666667     0.444445     0
C3       C     0.75         0.666667     0.472222     0
C4       C     0.78125      0.666667     0.388888     0
C1       C     0.75         0.666667     0.527778     0
C2       C     0.78125      0.666667     0.611112     0
C3       C     0.75         0.666667     0.638888     0
C4       C     0.78125      0.666667     0.555555     0
C1       C     0.75         0.666667     0.694445     0
C2       C     0.78125      0.666667     0.777778     0
C3       C     0.75         0.666667     0.805555     0
C4       C     0.78125      0.666667     0.722222     0
C1       C     0.75         0.666667     0.861112     0
C2       C     0.78125      0.666667     0.944445     0
C3       C     0.75         0.666667     0.972222     0
C4       C     0.78125      0.666667     0.888888     0
C1       C     0.8125       0            0.0277783    0
C2       C     0.84375      0            0.111112     0
C3       C     0.8125       0            0.138888     0
C4       C     0.84375      0            0.055555     0
C1       C     0.8125       0            0.194445     0
C2       C     0.84375      0            0.277778     0
C3       C     0.8125       0            0.305555     0
C4       C     0.84375      0            0.222222     0
C1       C     0.8125       0            0.361112     0
C2       C     0.84375      0            0.444445     0
C3       C     0.8125       0            0.472222     0
C4       C     0.84375      0            0.388888     0
C1       C     0.8125       0            0.527778     0
C2       C     0.84375      0            0.611112     0
C3       C     0.8125       0            0.638888     0
C4       C     0.84375      0            0.555555     0
C1       C     0.8125       0            0.694445     0
C2       C     0.84375      0            0.777778     0
C3       C     0.8125       0            0.805555     0
C4       C     0.84375      0            0.722222     0
C1       C     0.8125       0            0.861112     0
C2       C     0.84375      0            0.944445     0
C3       C     0.8125       0            0.972222     0
C4       C     0.84375      0            0.888888     0
C1       C     0.8125       0.333333     0.0277783    0
C2       C     0.84375      0.333333     0.111112     0
C3       C     0.8125       0.333333     0.138888     0
C4       C     0.84375      0.333333     0.055555     0
C1       C     0.8125       0.333333     0.194445     0
C2       C     0.84375      0.333333     0.277778     0
C3       C     0.8125       0.333333     0.305555     0
C4       C     0.84375      0.333333     0.222222     0
C1       C     0.8125       0.333333     0.361112     0
C2       C     0.84375      0.333333     0.444445     0
C3       C     0.8125       0.333333     0.472222     0
C4       C     0.84375      0.333333     0.388888     0
C1       C     0.8125       0.333333     0.527778     0
C2       C     0.84375      0.333333     0.611112     0
C3       C     0.8125       0.333333     0.638888     0
C4       C     0.84375      0.333333     0.555555     0
C1       C     0.8125       0.333333     0.694445     0
C2       C     0.84375      0.333333     0.777778     0
C3       C     0.8125       0.333333     0.805555     0
C4       C     0.84375      0.333333     0.722222     0
C1       C     0.8125       0.333333     0.861112     0
C2       C     0.84375      0.333333     0.944445     0
C3       C     0.8125       0.333333     0.972222     0
C4       C     0.84375      0.333333     0.888888     0
C1       C     0.8125       0.666667     0.0277783    0
C2       C     0.84375      0.666667     0.111112     0
C3       C     0.8125       0.666667     0.138888     0
C4       C     0.84375      0.666667     0.055555     0
C1       C     0.8125       0.666667     0.194445     0
C2       C     0.84375      0.666667     0.277778     0
C3       C     0.8125       0.666667     0.305555     0
C4       C     0.84375      0.666667     0.222222     0
C1       C     0.8125       0.666667     0.361112     0
C2       C     0.84375      0.666667     0.444445     0
C3       C     0.8125       0.666667     0.472222     0
C4       C     0.84375      0.666667     0.388888     0
C1       C     0.8125       0.666667     0.527778     0
C2       C     0.84375      0.666667     0.611112     0
C3       C     0.8125       0.666667     0.638888     0
C4       C     0.84375      0.666667     0.555555     0
C1       C     0.8125       0.666667     0.694445     0
C2       C     0.84375      0.666667     0.777778     0
C3       C     0.8125       0.666667     0.805555     0
C4       C     0.84375      0.666667     0.722222     0
C1       C     0.8125       0.666667     0.861112     0
C2       C     0.84375      0.666667     0.944445     0
C3       C     0.8125       0.666667     0.972222     0
C4       C     0.84375      0.666667     0.888888     0
C1       C     0.875        0            0.0277783    0
C2       C     0.90625      0            0.111112     0
C3       C     0.875        0            0.138888     0
C4       C     0.90625      0            0.055555     0
C1       C     0.875        0            0.194445     0
C2       C     0.90625      0            0.277778     0
C3       C     0.875        0            0.305555     0
C4       C     0.90625      0            0.222222     0
C1       C     0.875        0            0.361112     0
C2       C     0.90625      0            0.444445     0
C3       C     0.875        0            0.472222     0
C4       C     0.90625      0            0.388888     0
C1       C     0.875        0            0.527778     0
C2       C     0.90625      0            0.611112     0
C3       C     0.875        0            0.638888     0
C4       C     0.90625      0            0.555555     0
C1       C     0.875        0            0.694445     0
C2       C     0.90625      0            0.777778     0
C3       C     0.875        0            0.805555     0
C4       C     0.90625      0            0.722222     0
C1       C     0.875        0            0.861112     0
C2       C     0.90625      0            0.944445     0
C3       C     0.875        0            0.972222     0
C4       C     0.90625      0            0.888888     0
C1       C     0.875        0.333333     0.0277783    0
C2       C     0.90625      0.333333     0.111112     0
C3       C     0.875        0.333333     0.138888     0
C4       C     0.90625      0.333333     0.055555     0
C1       C     0.875        0.333333     0.194445     0
C2       C     0.90625      0.333333     0.277778     0
C3       C     0.875        0.333333     0.305555     0
C4       C     0.90625      0.333333     0.222222     0
C1       C     0.875        0.333333     0.361112     0
C2       C     0.90625      0.333333     0.444445     0
C3       C     0.875        0.333333     0.472222     0
C4       C     0.90625      0.333333     0.388888     0
C1       C     0.875        0.333333     0.527778     0
C2       C     0.90625      0.333333     0.611112     0
C3       C     0.875        0.333333     0.638888     0
C4       C     0.90625      0.333333     0.555555     0
C1       C     0.875        0.333333     0.694445     0
C2       C     0.90625      0.333333     0.777778     0
C3       C     0.875        0.333333     0.805555     0
C4       C     0.90625      0.333333     0.722222     0
C1       C     0.875        0.333333     0.861112     0
C2       C     0.90625      0.333333     0.944445     0
C3       C     0.875        0.333333     0.972222     0
C4       C     0.90625      0.333333     0.888888     0
C1       C     0.875        0.666667     0.0277783    0
C2       C     0.90625      0.666667     0.111112     0
C3       C     0.875        0.666667     0.138888     0
C4       C     0.90625      0.666667     0.055555     0
C1       C     0.875        0.666667     0.194445     0
C2       C     0.90625      0.666667     0.277778     0
C3       C     0.875        0.666667     0.305555     0
C4       C     0.90625      0.666667     0.222222     0
C1       C     0.875        0.666667     0.361112     0
C2       C     0.90625      0.666667     0.444445     0
C3       C     0.875        0.666667     0.472222     0
C4       C     0.90625      0.666667     0.388888     0
C1       C     0.875        0.666667     0.527778     0
C2       C     0.90625      0.666667     0.611112     0
C3       C     0.875        0.666667     0.638888     0
C4       C     0.90625      0.666667     0.555555     0
C1       C     0.875        0.666667     0.694445     0
C2       C     0.90625      0.666667     0.777778     0
C3       C     0.875        0.666667     0.805555     0
C4       C     0.90625      0.666667     0.722222     0
C1       C     0.875        0.666667     0.861112     0
C2       C     0.90625      0.666667     0.944445     0
C3       C     0.875        0.666667     0.972222     0
C4       C     0.90625      0.666667     0.888888     0
C1       C     0.9375       0            0.0277783    0
C2       C     0.96875      0            0.111112     0
C3       C     0.9375       0            0.138888     0
C4       C     0.96875      0            0.055555     0
C1       C     0.9375       0            0.194445     0
C2       C     0.96875      0            0.277778     0
C3       C     0.9375       0            0.305555     0
C4       C     0.96875      0            0.222222     0
C1       C     0.9375       0            0.361112     0
C2       C     0.96875      0            0.444445     0
C3       C     0.9375       0            0.472222     0
C4       C     0.96875      0            0.388888     0
C1       C     0.9375       0            0.527778     0
C2       C     0.96875      0            0.611112     0
C3       C     0.9375       0            0.638888     0
C4       C     0.96875      0            0.555555     0
C1       C     0.9375       0            0.694445     0
C2       C     0.96875      0            0.777778     0
C3       C     0.9375       0            0.805555     0
C4       C     0.96875      0            0.722222     0
C1       C     0.9375       0            0.861112     0
C2       C     0.96875      0            0.944445     0
C3       C     0.9375       0            0.972222     0
C4       C     0.96875      0            0.888888     0
C1       C     0.9375       0.333333     0.0277783    0
C2       C     0.96875      0.333333     0.111112     0
C3       C     0.9375       0.333333     0.138888     0
C4       C     0.96875      0.333333     0.055555     0
C1       C     0.9375       0.333333     0.194445     0
C2       C     0.96875      0.333333     0.277778     0
C3       C     0.9375       0.333333     0.305555     0
C4       C     0.96875      0.333333     0.222222     0
C1       C     0.9375       0.333333     0.361112     0
C2       C     0.96875      0.333333     0.444445     0
C3       C     0.9375       0.333333     0.472222     0
C4       C     0.96875      0.333333     0.388888     0
C1       C     0.9375       0.333333     0.527778     0
C2       C     0.96875      0.333333     0.611112     0
C3       C     0.9375       0.333333     0.638888     0
C4       C     0.96875      0.333333     0.555555     0
C1       C     0.9375       0.333333     0.694445     0
C2       C     0.96875      0.333333     0.777778     0
C3       C     0.9375       0.333333     0.805555     0
C4       C     0.96875      0.333333     0.722222     0
C1       C     0.9375       0.333333     0.861112     0
C2       C     0.96875      0.333333     0.944445     0
C3       C     0.9375       0.333333     0.972222     0
C4       C     0.96875      0.333333     0.888888     0
C1       C     0.9375       0.666667     0.0277783    0
C2       C     0.96875      0.666667     0.111112     0
C3       C     0.9375       0.666667     0.138888     0
C4       C     0.96875      0.666667     0.055555     0
C1       C     0.9375       0.666667     0.194445     0
C2       C     0.96875      0.666667     0.277778     0
C3       C     0.9375       0.666667     0.305555     0
C4       C     0.96875      0.666667     0.222222     0
C1       C     0.9375       0.666667     0.361112     0
C2       C     0.96875      0.666667     0.444445     0
C3       C     0.9375       0.666667     0.472222     0
C4       C     0.96875      0.666667     0.388888     0
C1       C     0.9375       0.666667     0.527778     0
C2       C     0.96875      0.666667     0.611112     0
C3       C     0.9375       0.666667     0.638888     0
C4       C     0.96875      0.666667     0.555555     0
C1       C     0.9375       0.666667     0.694445     0
C2       C     0.96875      0.666667     0.777778     0
C3       C     0.9375       0.666667     0.805555     0
C4       C     0.96875      0.666667     0.722222     0
C1       C     0.9375       0.666667     0.861112     0
C2       C     0.96875      0.666667     0.944445     0
C3       C     0.9375       0.666667     0.972222     0
C4       C     0.96875      0.666667     0.888888     0


