data_graphite_ortho

_audit_creation_method RASPA-1.0
_audit_creation_date 2012-2-3
_audit_author_name 'David Dubbeldam'

_cell_length_a    39.36
_cell_length_b    55.38
_cell_length_c    55.38
_cell_angle_alpha 90
_cell_angle_beta  90
_cell_angle_gamma 90
_cell_volume      120715

_symmetry_cell_setting          triclinic
_symmetry_space_group_name_Hall 'P 1'
_symmetry_space_group_name_H-M  'P 1'
_symmetry_Int_Tables_number     1

_symmetry_equiv_pos_as_xyz 'x,y,z'

loop_
_atom_site_label
_atom_site_type_symbol
_atom_site_fract_x
_atom_site_fract_y
_atom_site_fract_z
_atom_site_charge
C1       C     0            0.0128208    0            0
C2       C     0.03125      0.0512823    0            0
C3       C     0            0.0641023    0            0
C4       C     0.03125      0.0256408    0            0
C1       C     0            0.0128208    0.333333     0
C2       C     0.03125      0.0512823    0.333333     0
C3       C     0            0.0641023    0.333333     0
C4       C     0.03125      0.0256408    0.333333     0
C1       C     0            0.0128208    0.666667     0
C2       C     0.03125      0.0512823    0.666667     0
C3       C     0            0.0641023    0.666667     0
C4       C     0.03125      0.0256408    0.666667     0
C1       C     0            0.0897438    0            0
C2       C     0.03125      0.128205     0            0
C3       C     0            0.141025     0            0
C4       C     0.03125      0.102564     0            0
C1       C     0            0.0897438    0.333333     0
C2       C     0.03125      0.128205     0.333333     0
C3       C     0            0.141025     0.333333     0
C4       C     0.03125      0.102564     0.333333     0
C1       C     0            0.0897438    0.666667     0
C2       C     0.03125      0.128205     0.666667     0
C3       C     0            0.141025     0.666667     0
C4       C     0.03125      0.102564     0.666667     0
C1       C     0            0.166667     0            0
C2       C     0.03125      0.205128     0            0
C3       C     0            0.217948     0            0
C4       C     0.03125      0.179487     0            0
C1       C     0            0.166667     0.333333     0
C2       C     0.03125      0.205128     0.333333     0
C3       C     0            0.217948     0.333333     0
C4       C     0.03125      0.179487     0.333333     0
C1       C     0            0.166667     0.666667     0
C2       C     0.03125      0.205128     0.666667     0
C3       C     0            0.217948     0.666667     0
C4       C     0.03125      0.179487     0.666667     0
C1       C     0            0.24359      0            0
C2       C     0.03125      0.282052     0            0
C3       C     0            0.294872     0            0
C4       C     0.03125      0.25641      0            0
C1       C     0            0.24359      0.333333     0
C2       C     0.03125      0.282052     0.333333     0
C3       C     0            0.294872     0.333333     0
C4       C     0.03125      0.25641      0.333333     0
C1       C     0            0.24359      0.666667     0
C2       C     0.03125      0.282052     0.666667     0
C3       C     0            0.294872     0.666667     0
C4       C     0.03125      0.25641      0.666667     0
C1       C     0            0.320513     0            0
C2       C     0.03125      0.358975     0            0
C3       C     0            0.371795     0            0
C4       C     0.03125      0.333333     0            0
C1       C     0            0.320513     0.333333     0
C2       C     0.03125      0.358975     0.333333     0
C3       C     0            0.371795     0.333333     0
C4       C     0.03125      0.333333     0.333333     0
C1       C     0            0.320513     0.666667     0
C2       C     0.03125      0.358975     0.666667     0
C3       C     0            0.371795     0.666667     0
C4       C     0.03125      0.333333     0.666667     0
C1       C     0            0.397436     0            0
C2       C     0.03125      0.435898     0            0
C3       C     0            0.448718     0            0
C4       C     0.03125      0.410256     0            0
C1       C     0            0.397436     0.333333     0
C2       C     0.03125      0.435898     0.333333     0
C3       C     0            0.448718     0.333333     0
C4       C     0.03125      0.410256     0.333333     0
C1       C     0            0.397436     0.666667     0
C2       C     0.03125      0.435898     0.666667     0
C3       C     0            0.448718     0.666667     0
C4       C     0.03125      0.410256     0.666667     0
C1       C     0            0.474359     0            0
C2       C     0.03125      0.512821     0            0
C3       C     0            0.525641     0            0
C4       C     0.03125      0.487179     0            0
C1       C     0            0.474359     0.333333     0
C2       C     0.03125      0.512821     0.333333     0
C3       C     0            0.525641     0.333333     0
C4       C     0.03125      0.487179     0.333333     0
C1       C     0            0.474359     0.666667     0
C2       C     0.03125      0.512821     0.666667     0
C3       C     0            0.525641     0.666667     0
C4       C     0.03125      0.487179     0.666667     0
C1       C     0            0.551282     0            0
C2       C     0.03125      0.589744     0            0
C3       C     0            0.602564     0            0
C4       C     0.03125      0.564102     0            0
C1       C     0            0.551282     0.333333     0
C2       C     0.03125      0.589744     0.333333     0
C3       C     0            0.602564     0.333333     0
C4       C     0.03125      0.564102     0.333333     0
C1       C     0            0.551282     0.666667     0
C2       C     0.03125      0.589744     0.666667     0
C3       C     0            0.602564     0.666667     0
C4       C     0.03125      0.564102     0.666667     0
C1       C     0            0.628205     0            0
C2       C     0.03125      0.666667     0            0
C3       C     0            0.679487     0            0
C4       C     0.03125      0.641025     0            0
C1       C     0            0.628205     0.333333     0
C2       C     0.03125      0.666667     0.333333     0
C3       C     0            0.679487     0.333333     0
C4       C     0.03125      0.641025     0.333333     0
C1       C     0            0.628205     0.666667     0
C2       C     0.03125      0.666667     0.666667     0
C3       C     0            0.679487     0.666667     0
C4       C     0.03125      0.641025     0.666667     0
C1       C     0            0.705128     0            0
C2       C     0.03125      0.74359      0            0
C3       C     0            0.75641      0            0
C4       C     0.03125      0.717948     0            0
C1       C     0            0.705128     0.333333     0
C2       C     0.03125      0.74359      0.333333     0
C3       C     0            0.75641      0.333333     0
C4       C     0.03125      0.717948     0.333333     0
C1       C     0            0.705128     0.666667     0
C2       C     0.03125      0.74359      0.666667     0
C3       C     0            0.75641      0.666667     0
C4       C     0.03125      0.717948     0.666667     0
C1       C     0            0.782052     0            0
C2       C     0.03125      0.820513     0            0
C3       C     0            0.833333     0            0
C4       C     0.03125      0.794872     0            0
C1       C     0            0.782052     0.333333     0
C2       C     0.03125      0.820513     0.333333     0
C3       C     0            0.833333     0.333333     0
C4       C     0.03125      0.794872     0.333333     0
C1       C     0            0.782052     0.666667     0
C2       C     0.03125      0.820513     0.666667     0
C3       C     0            0.833333     0.666667     0
C4       C     0.03125      0.794872     0.666667     0
C1       C     0            0.858975     0            0
C2       C     0.03125      0.897436     0            0
C3       C     0            0.910256     0            0
C4       C     0.03125      0.871795     0            0
C1       C     0            0.858975     0.333333     0
C2       C     0.03125      0.897436     0.333333     0
C3       C     0            0.910256     0.333333     0
C4       C     0.03125      0.871795     0.333333     0
C1       C     0            0.858975     0.666667     0
C2       C     0.03125      0.897436     0.666667     0
C3       C     0            0.910256     0.666667     0
C4       C     0.03125      0.871795     0.666667     0
C1       C     0            0.935898     0            0
C2       C     0.03125      0.974359     0            0
C3       C     0            0.987179     0            0
C4       C     0.03125      0.948718     0            0
C1       C     0            0.935898     0.333333     0
C2       C     0.03125      0.974359     0.333333     0
C3       C     0            0.987179     0.333333     0
C4       C     0.03125      0.948718     0.333333     0
C1       C     0            0.935898     0.666667     0
C2       C     0.03125      0.974359     0.666667     0
C3       C     0            0.987179     0.666667     0
C4       C     0.03125      0.948718     0.666667     0
C1       C     0.0625       0.0128208    0            0
C2       C     0.09375      0.0512823    0            0
C3       C     0.0625       0.0641023    0            0
C4       C     0.09375      0.0256408    0            0
C1       C     0.0625       0.0128208    0.333333     0
C2       C     0.09375      0.0512823    0.333333     0
C3       C     0.0625       0.0641023    0.333333     0
C4       C     0.09375      0.0256408    0.333333     0
C1       C     0.0625       0.0128208    0.666667     0
C2       C     0.09375      0.0512823    0.666667     0
C3       C     0.0625       0.0641023    0.666667     0
C4       C     0.09375      0.0256408    0.666667     0
C1       C     0.0625       0.0897438    0            0
C2       C     0.09375      0.128205     0            0
C3       C     0.0625       0.141025     0            0
C4       C     0.09375      0.102564     0            0
C1       C     0.0625       0.0897438    0.333333     0
C2       C     0.09375      0.128205     0.333333     0
C3       C     0.0625       0.141025     0.333333     0
C4       C     0.09375      0.102564     0.333333     0
C1       C     0.0625       0.0897438    0.666667     0
C2       C     0.09375      0.128205     0.666667     0
C3       C     0.0625       0.141025     0.666667     0
C4       C     0.09375      0.102564     0.666667     0
C1       C     0.0625       0.166667     0            0
C2       C     0.09375      0.205128     0            0
C3       C     0.0625       0.217948     0            0
C4       C     0.09375      0.179487     0            0
C1       C     0.0625       0.166667     0.333333     0
C2       C     0.09375      0.205128     0.333333     0
C3       C     0.0625       0.217948     0.333333     0
C4       C     0.09375      0.179487     0.333333     0
C1       C     0.0625       0.166667     0.666667     0
C2       C     0.09375      0.205128     0.666667     0
C3       C     0.0625       0.217948     0.666667     0
C4       C     0.09375      0.179487     0.666667     0
C1       C     0.0625       0.24359      0            0
C2       C     0.09375      0.282052     0            0
C3       C     0.0625       0.294872     0            0
C4       C     0.09375      0.25641      0            0
C1       C     0.0625       0.24359      0.333333     0
C2       C     0.09375      0.282052     0.333333     0
C3       C     0.0625       0.294872     0.333333     0
C4       C     0.09375      0.25641      0.333333     0
C1       C     0.0625       0.24359      0.666667     0
C2       C     0.09375      0.282052     0.666667     0
C3       C     0.0625       0.294872     0.666667     0
C4       C     0.09375      0.25641      0.666667     0
C1       C     0.0625       0.320513     0            0
C2       C     0.09375      0.358975     0            0
C3       C     0.0625       0.371795     0            0
C4       C     0.09375      0.333333     0            0
C1       C     0.0625       0.320513     0.333333     0
C2       C     0.09375      0.358975     0.333333     0
C3       C     0.0625       0.371795     0.333333     0
C4       C     0.09375      0.333333     0.333333     0
C1       C     0.0625       0.320513     0.666667     0
C2       C     0.09375      0.358975     0.666667     0
C3       C     0.0625       0.371795     0.666667     0
C4       C     0.09375      0.333333     0.666667     0
C1       C     0.0625       0.397436     0            0
C2       C     0.09375      0.435898     0            0
C3       C     0.0625       0.448718     0            0
C4       C     0.09375      0.410256     0            0
C1       C     0.0625       0.397436     0.333333     0
C2       C     0.09375      0.435898     0.333333     0
C3       C     0.0625       0.448718     0.333333     0
C4       C     0.09375      0.410256     0.333333     0
C1       C     0.0625       0.397436     0.666667     0
C2       C     0.09375      0.435898     0.666667     0
C3       C     0.0625       0.448718     0.666667     0
C4       C     0.09375      0.410256     0.666667     0
C1       C     0.0625       0.474359     0            0
C2       C     0.09375      0.512821     0            0
C3       C     0.0625       0.525641     0            0
C4       C     0.09375      0.487179     0            0
C1       C     0.0625       0.474359     0.333333     0
C2       C     0.09375      0.512821     0.333333     0
C3       C     0.0625       0.525641     0.333333     0
C4       C     0.09375      0.487179     0.333333     0
C1       C     0.0625       0.474359     0.666667     0
C2       C     0.09375      0.512821     0.666667     0
C3       C     0.0625       0.525641     0.666667     0
C4       C     0.09375      0.487179     0.666667     0
C1       C     0.0625       0.551282     0            0
C2       C     0.09375      0.589744     0            0
C3       C     0.0625       0.602564     0            0
C4       C     0.09375      0.564102     0            0
C1       C     0.0625       0.551282     0.333333     0
C2       C     0.09375      0.589744     0.333333     0
C3       C     0.0625       0.602564     0.333333     0
C4       C     0.09375      0.564102     0.333333     0
C1       C     0.0625       0.551282     0.666667     0
C2       C     0.09375      0.589744     0.666667     0
C3       C     0.0625       0.602564     0.666667     0
C4       C     0.09375      0.564102     0.666667     0
C1       C     0.0625       0.628205     0            0
C2       C     0.09375      0.666667     0            0
C3       C     0.0625       0.679487     0            0
C4       C     0.09375      0.641025     0            0
C1       C     0.0625       0.628205     0.333333     0
C2       C     0.09375      0.666667     0.333333     0
C3       C     0.0625       0.679487     0.333333     0
C4       C     0.09375      0.641025     0.333333     0
C1       C     0.0625       0.628205     0.666667     0
C2       C     0.09375      0.666667     0.666667     0
C3       C     0.0625       0.679487     0.666667     0
C4       C     0.09375      0.641025     0.666667     0
C1       C     0.0625       0.705128     0            0
C2       C     0.09375      0.74359      0            0
C3       C     0.0625       0.75641      0            0
C4       C     0.09375      0.717948     0            0
C1       C     0.0625       0.705128     0.333333     0
C2       C     0.09375      0.74359      0.333333     0
C3       C     0.0625       0.75641      0.333333     0
C4       C     0.09375      0.717948     0.333333     0
C1       C     0.0625       0.705128     0.666667     0
C2       C     0.09375      0.74359      0.666667     0
C3       C     0.0625       0.75641      0.666667     0
C4       C     0.09375      0.717948     0.666667     0
C1       C     0.0625       0.782052     0            0
C2       C     0.09375      0.820513     0            0
C3       C     0.0625       0.833333     0            0
C4       C     0.09375      0.794872     0            0
C1       C     0.0625       0.782052     0.333333     0
C2       C     0.09375      0.820513     0.333333     0
C3       C     0.0625       0.833333     0.333333     0
C4       C     0.09375      0.794872     0.333333     0
C1       C     0.0625       0.782052     0.666667     0
C2       C     0.09375      0.820513     0.666667     0
C3       C     0.0625       0.833333     0.666667     0
C4       C     0.09375      0.794872     0.666667     0
C1       C     0.0625       0.858975     0            0
C2       C     0.09375      0.897436     0            0
C3       C     0.0625       0.910256     0            0
C4       C     0.09375      0.871795     0            0
C1       C     0.0625       0.858975     0.333333     0
C2       C     0.09375      0.897436     0.333333     0
C3       C     0.0625       0.910256     0.333333     0
C4       C     0.09375      0.871795     0.333333     0
C1       C     0.0625       0.858975     0.666667     0
C2       C     0.09375      0.897436     0.666667     0
C3       C     0.0625       0.910256     0.666667     0
C4       C     0.09375      0.871795     0.666667     0
C1       C     0.0625       0.935898     0            0
C2       C     0.09375      0.974359     0            0
C3       C     0.0625       0.987179     0            0
C4       C     0.09375      0.948718     0            0
C1       C     0.0625       0.935898     0.333333     0
C2       C     0.09375      0.974359     0.333333     0
C3       C     0.0625       0.987179     0.333333     0
C4       C     0.09375      0.948718     0.333333     0
C1       C     0.0625       0.935898     0.666667     0
C2       C     0.09375      0.974359     0.666667     0
C3       C     0.0625       0.987179     0.666667     0
C4       C     0.09375      0.948718     0.666667     0
C1       C     0.125        0.0128208    0            0
C2       C     0.15625      0.0512823    0            0
C3       C     0.125        0.0641023    0            0
C4       C     0.15625      0.0256408    0            0
C1       C     0.125        0.0128208    0.333333     0
C2       C     0.15625      0.0512823    0.333333     0
C3       C     0.125        0.0641023    0.333333     0
C4       C     0.15625      0.0256408    0.333333     0
C1       C     0.125        0.0128208    0.666667     0
C2       C     0.15625      0.0512823    0.666667     0
C3       C     0.125        0.0641023    0.666667     0
C4       C     0.15625      0.0256408    0.666667     0
C1       C     0.125        0.0897438    0            0
C2       C     0.15625      0.128205     0            0
C3       C     0.125        0.141025     0            0
C4       C     0.15625      0.102564     0            0
C1       C     0.125        0.0897438    0.333333     0
C2       C     0.15625      0.128205     0.333333     0
C3       C     0.125        0.141025     0.333333     0
C4       C     0.15625      0.102564     0.333333     0
C1       C     0.125        0.0897438    0.666667     0
C2       C     0.15625      0.128205     0.666667     0
C3       C     0.125        0.141025     0.666667     0
C4       C     0.15625      0.102564     0.666667     0
C1       C     0.125        0.166667     0            0
C2       C     0.15625      0.205128     0            0
C3       C     0.125        0.217948     0            0
C4       C     0.15625      0.179487     0            0
C1       C     0.125        0.166667     0.333333     0
C2       C     0.15625      0.205128     0.333333     0
C3       C     0.125        0.217948     0.333333     0
C4       C     0.15625      0.179487     0.333333     0
C1       C     0.125        0.166667     0.666667     0
C2       C     0.15625      0.205128     0.666667     0
C3       C     0.125        0.217948     0.666667     0
C4       C     0.15625      0.179487     0.666667     0
C1       C     0.125        0.24359      0            0
C2       C     0.15625      0.282052     0            0
C3       C     0.125        0.294872     0            0
C4       C     0.15625      0.25641      0            0
C1       C     0.125        0.24359      0.333333     0
C2       C     0.15625      0.282052     0.333333     0
C3       C     0.125        0.294872     0.333333     0
C4       C     0.15625      0.25641      0.333333     0
C1       C     0.125        0.24359      0.666667     0
C2       C     0.15625      0.282052     0.666667     0
C3       C     0.125        0.294872     0.666667     0
C4       C     0.15625      0.25641      0.666667     0
C1       C     0.125        0.320513     0            0
C2       C     0.15625      0.358975     0            0
C3       C     0.125        0.371795     0            0
C4       C     0.15625      0.333333     0            0
C1       C     0.125        0.320513     0.333333     0
C2       C     0.15625      0.358975     0.333333     0
C3       C     0.125        0.371795     0.333333     0
C4       C     0.15625      0.333333     0.333333     0
C1       C     0.125        0.320513     0.666667     0
C2       C     0.15625      0.358975     0.666667     0
C3       C     0.125        0.371795     0.666667     0
C4       C     0.15625      0.333333     0.666667     0
C1       C     0.125        0.397436     0            0
C2       C     0.15625      0.435898     0            0
C3       C     0.125        0.448718     0            0
C4       C     0.15625      0.410256     0            0
C1       C     0.125        0.397436     0.333333     0
C2       C     0.15625      0.435898     0.333333     0
C3       C     0.125        0.448718     0.333333     0
C4       C     0.15625      0.410256     0.333333     0
C1       C     0.125        0.397436     0.666667     0
C2       C     0.15625      0.435898     0.666667     0
C3       C     0.125        0.448718     0.666667     0
C4       C     0.15625      0.410256     0.666667     0
C1       C     0.125        0.474359     0            0
C2       C     0.15625      0.512821     0            0
C3       C     0.125        0.525641     0            0
C4       C     0.15625      0.487179     0            0
C1       C     0.125        0.474359     0.333333     0
C2       C     0.15625      0.512821     0.333333     0
C3       C     0.125        0.525641     0.333333     0
C4       C     0.15625      0.487179     0.333333     0
C1       C     0.125        0.474359     0.666667     0
C2       C     0.15625      0.512821     0.666667     0
C3       C     0.125        0.525641     0.666667     0
C4       C     0.15625      0.487179     0.666667     0
C1       C     0.125        0.551282     0            0
C2       C     0.15625      0.589744     0            0
C3       C     0.125        0.602564     0            0
C4       C     0.15625      0.564102     0            0
C1       C     0.125        0.551282     0.333333     0
C2       C     0.15625      0.589744     0.333333     0
C3       C     0.125        0.602564     0.333333     0
C4       C     0.15625      0.564102     0.333333     0
C1       C     0.125        0.551282     0.666667     0
C2       C     0.15625      0.589744     0.666667     0
C3       C     0.125        0.602564     0.666667     0
C4       C     0.15625      0.564102     0.666667     0
C1       C     0.125        0.628205     0            0
C2       C     0.15625      0.666667     0            0
C3       C     0.125        0.679487     0            0
C4       C     0.15625      0.641025     0            0
C1       C     0.125        0.628205     0.333333     0
C2       C     0.15625      0.666667     0.333333     0
C3       C     0.125        0.679487     0.333333     0
C4       C     0.15625      0.641025     0.333333     0
C1       C     0.125        0.628205     0.666667     0
C2       C     0.15625      0.666667     0.666667     0
C3       C     0.125        0.679487     0.666667     0
C4       C     0.15625      0.641025     0.666667     0
C1       C     0.125        0.705128     0            0
C2       C     0.15625      0.74359      0            0
C3       C     0.125        0.75641      0            0
C4       C     0.15625      0.717948     0            0
C1       C     0.125        0.705128     0.333333     0
C2       C     0.15625      0.74359      0.333333     0
C3       C     0.125        0.75641      0.333333     0
C4       C     0.15625      0.717948     0.333333     0
C1       C     0.125        0.705128     0.666667     0
C2       C     0.15625      0.74359      0.666667     0
C3       C     0.125        0.75641      0.666667     0
C4       C     0.15625      0.717948     0.666667     0
C1       C     0.125        0.782052     0            0
C2       C     0.15625      0.820513     0            0
C3       C     0.125        0.833333     0            0
C4       C     0.15625      0.794872     0            0
C1       C     0.125        0.782052     0.333333     0
C2       C     0.15625      0.820513     0.333333     0
C3       C     0.125        0.833333     0.333333     0
C4       C     0.15625      0.794872     0.333333     0
C1       C     0.125        0.782052     0.666667     0
C2       C     0.15625      0.820513     0.666667     0
C3       C     0.125        0.833333     0.666667     0
C4       C     0.15625      0.794872     0.666667     0
C1       C     0.125        0.858975     0            0
C2       C     0.15625      0.897436     0            0
C3       C     0.125        0.910256     0            0
C4       C     0.15625      0.871795     0            0
C1       C     0.125        0.858975     0.333333     0
C2       C     0.15625      0.897436     0.333333     0
C3       C     0.125        0.910256     0.333333     0
C4       C     0.15625      0.871795     0.333333     0
C1       C     0.125        0.858975     0.666667     0
C2       C     0.15625      0.897436     0.666667     0
C3       C     0.125        0.910256     0.666667     0
C4       C     0.15625      0.871795     0.666667     0
C1       C     0.125        0.935898     0            0
C2       C     0.15625      0.974359     0            0
C3       C     0.125        0.987179     0            0
C4       C     0.15625      0.948718     0            0
C1       C     0.125        0.935898     0.333333     0
C2       C     0.15625      0.974359     0.333333     0
C3       C     0.125        0.987179     0.333333     0
C4       C     0.15625      0.948718     0.333333     0
C1       C     0.125        0.935898     0.666667     0
C2       C     0.15625      0.974359     0.666667     0
C3       C     0.125        0.987179     0.666667     0
C4       C     0.15625      0.948718     0.666667     0
C1       C     0.1875       0.0128208    0            0
C2       C     0.21875      0.0512823    0            0
C3       C     0.1875       0.0641023    0            0
C4       C     0.21875      0.0256408    0            0
C1       C     0.1875       0.0128208    0.333333     0
C2       C     0.21875      0.0512823    0.333333     0
C3       C     0.1875       0.0641023    0.333333     0
C4       C     0.21875      0.0256408    0.333333     0
C1       C     0.1875       0.0128208    0.666667     0
C2       C     0.21875      0.0512823    0.666667     0
C3       C     0.1875       0.0641023    0.666667     0
C4       C     0.21875      0.0256408    0.666667     0
C1       C     0.1875       0.0897438    0            0
C2       C     0.21875      0.128205     0            0
C3       C     0.1875       0.141025     0            0
C4       C     0.21875      0.102564     0            0
C1       C     0.1875       0.0897438    0.333333     0
C2       C     0.21875      0.128205     0.333333     0
C3       C     0.1875       0.141025     0.333333     0
C4       C     0.21875      0.102564     0.333333     0
C1       C     0.1875       0.0897438    0.666667     0
C2       C     0.21875      0.128205     0.666667     0
C3       C     0.1875       0.141025     0.666667     0
C4       C     0.21875      0.102564     0.666667     0
C1       C     0.1875       0.166667     0            0
C2       C     0.21875      0.205128     0            0
C3       C     0.1875       0.217948     0            0
C4       C     0.21875      0.179487     0            0
C1       C     0.1875       0.166667     0.333333     0
C2       C     0.21875      0.205128     0.333333     0
C3       C     0.1875       0.217948     0.333333     0
C4       C     0.21875      0.179487     0.333333     0
C1       C     0.1875       0.166667     0.666667     0
C2       C     0.21875      0.205128     0.666667     0
C3       C     0.1875       0.217948     0.666667     0
C4       C     0.21875      0.179487     0.666667     0
C1       C     0.1875       0.24359      0            0
C2       C     0.21875      0.282052     0            0
C3       C     0.1875       0.294872     0            0
C4       C     0.21875      0.25641      0            0
C1       C     0.1875       0.24359      0.333333     0
C2       C     0.21875      0.282052     0.333333     0
C3       C     0.1875       0.294872     0.333333     0
C4       C     0.21875      0.25641      0.333333     0
C1       C     0.1875       0.24359      0.666667     0
C2       C     0.21875      0.282052     0.666667     0
C3       C     0.1875       0.294872     0.666667     0
C4       C     0.21875      0.25641      0.666667     0
C1       C     0.1875       0.320513     0            0
C2       C     0.21875      0.358975     0            0
C3       C     0.1875       0.371795     0            0
C4       C     0.21875      0.333333     0            0
C1       C     0.1875       0.320513     0.333333     0
C2       C     0.21875      0.358975     0.333333     0
C3       C     0.1875       0.371795     0.333333     0
C4       C     0.21875      0.333333     0.333333     0
C1       C     0.1875       0.320513     0.666667     0
C2       C     0.21875      0.358975     0.666667     0
C3       C     0.1875       0.371795     0.666667     0
C4       C     0.21875      0.333333     0.666667     0
C1       C     0.1875       0.397436     0            0
C2       C     0.21875      0.435898     0            0
C3       C     0.1875       0.448718     0            0
C4       C     0.21875      0.410256     0            0
C1       C     0.1875       0.397436     0.333333     0
C2       C     0.21875      0.435898     0.333333     0
C3       C     0.1875       0.448718     0.333333     0
C4       C     0.21875      0.410256     0.333333     0
C1       C     0.1875       0.397436     0.666667     0
C2       C     0.21875      0.435898     0.666667     0
C3       C     0.1875       0.448718     0.666667     0
C4       C     0.21875      0.410256     0.666667     0
C1       C     0.1875       0.474359     0            0
C2       C     0.21875      0.512821     0            0
C3       C     0.1875       0.525641     0            0
C4       C     0.21875      0.487179     0            0
C1       C     0.1875       0.474359     0.333333     0
C2       C     0.21875      0.512821     0.333333     0
C3       C     0.1875       0.525641     0.333333     0
C4       C     0.21875      0.487179     0.333333     0
C1       C     0.1875       0.474359     0.666667     0
C2       C     0.21875      0.512821     0.666667     0
C3       C     0.1875       0.525641     0.666667     0
C4       C     0.21875      0.487179     0.666667     0
C1       C     0.1875       0.551282     0            0
C2       C     0.21875      0.589744     0            0
C3       C     0.1875       0.602564     0            0
C4       C     0.21875      0.564102     0            0
C1       C     0.1875       0.551282     0.333333     0
C2       C     0.21875      0.589744     0.333333     0
C3       C     0.1875       0.602564     0.333333     0
C4       C     0.21875      0.564102     0.333333     0
C1       C     0.1875       0.551282     0.666667     0
C2       C     0.21875      0.589744     0.666667     0
C3       C     0.1875       0.602564     0.666667     0
C4       C     0.21875      0.564102     0.666667     0
C1       C     0.1875       0.628205     0            0
C2       C     0.21875      0.666667     0            0
C3       C     0.1875       0.679487     0            0
C4       C     0.21875      0.641025     0            0
C1       C     0.1875       0.628205     0.333333     0
C2       C     0.21875      0.666667     0.333333     0
C3       C     0.1875       0.679487     0.333333     0
C4       C     0.21875      0.641025     0.333333     0
C1       C     0.1875       0.628205     0.666667     0
C2       C     0.21875      0.666667     0.666667     0
C3       C     0.1875       0.679487     0.666667     0
C4       C     0.21875      0.641025     0.666667     0
C1       C     0.1875       0.705128     0            0
C2       C     0.21875      0.74359      0            0
C3       C     0.1875       0.75641      0            0
C4       C     0.21875      0.717948     0            0
C1       C     0.1875       0.705128     0.333333     0
C2       C     0.21875      0.74359      0.333333     0
C3       C     0.1875       0.75641      0.333333     0
C4       C     0.21875      0.717948     0.333333     0
C1       C     0.1875       0.705128     0.666667     0
C2       C     0.21875      0.74359      0.666667     0
C3       C     0.1875       0.75641      0.666667     0
C4       C     0.21875      0.717948     0.666667     0
C1       C     0.1875       0.782052     0            0
C2       C     0.21875      0.820513     0            0
C3       C     0.1875       0.833333     0            0
C4       C     0.21875      0.794872     0            0
C1       C     0.1875       0.782052     0.333333     0
C2       C     0.21875      0.820513     0.333333     0
C3       C     0.1875       0.833333     0.333333     0
C4       C     0.21875      0.794872     0.333333     0
C1       C     0.1875       0.782052     0.666667     0
C2       C     0.21875      0.820513     0.666667     0
C3       C     0.1875       0.833333     0.666667     0
C4       C     0.21875      0.794872     0.666667     0
C1       C     0.1875       0.858975     0            0
C2       C     0.21875      0.897436     0            0
C3       C     0.1875       0.910256     0            0
C4       C     0.21875      0.871795     0            0
C1       C     0.1875       0.858975     0.333333     0
C2       C     0.21875      0.897436     0.333333     0
C3       C     0.1875       0.910256     0.333333     0
C4       C     0.21875      0.871795     0.333333     0
C1       C     0.1875       0.858975     0.666667     0
C2       C     0.21875      0.897436     0.666667     0
C3       C     0.1875       0.910256     0.666667     0
C4       C     0.21875      0.871795     0.666667     0
C1       C     0.1875       0.935898     0            0
C2       C     0.21875      0.974359     0            0
C3       C     0.1875       0.987179     0            0
C4       C     0.21875      0.948718     0            0
C1       C     0.1875       0.935898     0.333333     0
C2       C     0.21875      0.974359     0.333333     0
C3       C     0.1875       0.987179     0.333333     0
C4       C     0.21875      0.948718     0.333333     0
C1       C     0.1875       0.935898     0.666667     0
C2       C     0.21875      0.974359     0.666667     0
C3       C     0.1875       0.987179     0.666667     0
C4       C     0.21875      0.948718     0.666667     0
C1       C     0.25         0.0128208    0            0
C2       C     0.28125      0.0512823    0            0
C3       C     0.25         0.0641023    0            0
C4       C     0.28125      0.0256408    0            0
C1       C     0.25         0.0128208    0.333333     0
C2       C     0.28125      0.0512823    0.333333     0
C3       C     0.25         0.0641023    0.333333     0
C4       C     0.28125      0.0256408    0.333333     0
C1       C     0.25         0.0128208    0.666667     0
C2       C     0.28125      0.0512823    0.666667     0
C3       C     0.25         0.0641023    0.666667     0
C4       C     0.28125      0.0256408    0.666667     0
C1       C     0.25         0.0897438    0            0
C2       C     0.28125      0.128205     0            0
C3       C     0.25         0.141025     0            0
C4       C     0.28125      0.102564     0            0
C1       C     0.25         0.0897438    0.333333     0
C2       C     0.28125      0.128205     0.333333     0
C3       C     0.25         0.141025     0.333333     0
C4       C     0.28125      0.102564     0.333333     0
C1       C     0.25         0.0897438    0.666667     0
C2       C     0.28125      0.128205     0.666667     0
C3       C     0.25         0.141025     0.666667     0
C4       C     0.28125      0.102564     0.666667     0
C1       C     0.25         0.166667     0            0
C2       C     0.28125      0.205128     0            0
C3       C     0.25         0.217948     0            0
C4       C     0.28125      0.179487     0            0
C1       C     0.25         0.166667     0.333333     0
C2       C     0.28125      0.205128     0.333333     0
C3       C     0.25         0.217948     0.333333     0
C4       C     0.28125      0.179487     0.333333     0
C1       C     0.25         0.166667     0.666667     0
C2       C     0.28125      0.205128     0.666667     0
C3       C     0.25         0.217948     0.666667     0
C4       C     0.28125      0.179487     0.666667     0
C1       C     0.25         0.24359      0            0
C2       C     0.28125      0.282052     0            0
C3       C     0.25         0.294872     0            0
C4       C     0.28125      0.25641      0            0
C1       C     0.25         0.24359      0.333333     0
C2       C     0.28125      0.282052     0.333333     0
C3       C     0.25         0.294872     0.333333     0
C4       C     0.28125      0.25641      0.333333     0
C1       C     0.25         0.24359      0.666667     0
C2       C     0.28125      0.282052     0.666667     0
C3       C     0.25         0.294872     0.666667     0
C4       C     0.28125      0.25641      0.666667     0
C1       C     0.25         0.320513     0            0
C2       C     0.28125      0.358975     0            0
C3       C     0.25         0.371795     0            0
C4       C     0.28125      0.333333     0            0
C1       C     0.25         0.320513     0.333333     0
C2       C     0.28125      0.358975     0.333333     0
C3       C     0.25         0.371795     0.333333     0
C4       C     0.28125      0.333333     0.333333     0
C1       C     0.25         0.320513     0.666667     0
C2       C     0.28125      0.358975     0.666667     0
C3       C     0.25         0.371795     0.666667     0
C4       C     0.28125      0.333333     0.666667     0
C1       C     0.25         0.397436     0            0
C2       C     0.28125      0.435898     0            0
C3       C     0.25         0.448718     0            0
C4       C     0.28125      0.410256     0            0
C1       C     0.25         0.397436     0.333333     0
C2       C     0.28125      0.435898     0.333333     0
C3       C     0.25         0.448718     0.333333     0
C4       C     0.28125      0.410256     0.333333     0
C1       C     0.25         0.397436     0.666667     0
C2       C     0.28125      0.435898     0.666667     0
C3       C     0.25         0.448718     0.666667     0
C4       C     0.28125      0.410256     0.666667     0
C1       C     0.25         0.474359     0            0
C2       C     0.28125      0.512821     0            0
C3       C     0.25         0.525641     0            0
C4       C     0.28125      0.487179     0            0
C1       C     0.25         0.474359     0.333333     0
C2       C     0.28125      0.512821     0.333333     0
C3       C     0.25         0.525641     0.333333     0
C4       C     0.28125      0.487179     0.333333     0
C1       C     0.25         0.474359     0.666667     0
C2       C     0.28125      0.512821     0.666667     0
C3       C     0.25         0.525641     0.666667     0
C4       C     0.28125      0.487179     0.666667     0
C1       C     0.25         0.551282     0            0
C2       C     0.28125      0.589744     0            0
C3       C     0.25         0.602564     0            0
C4       C     0.28125      0.564102     0            0
C1       C     0.25         0.551282     0.333333     0
C2       C     0.28125      0.589744     0.333333     0
C3       C     0.25         0.602564     0.333333     0
C4       C     0.28125      0.564102     0.333333     0
C1       C     0.25         0.551282     0.666667     0
C2       C     0.28125      0.589744     0.666667     0
C3       C     0.25         0.602564     0.666667     0
C4       C     0.28125      0.564102     0.666667     0
C1       C     0.25         0.628205     0            0
C2       C     0.28125      0.666667     0            0
C3       C     0.25         0.679487     0            0
C4       C     0.28125      0.641025     0            0
C1       C     0.25         0.628205     0.333333     0
C2       C     0.28125      0.666667     0.333333     0
C3       C     0.25         0.679487     0.333333     0
C4       C     0.28125      0.641025     0.333333     0
C1       C     0.25         0.628205     0.666667     0
C2       C     0.28125      0.666667     0.666667     0
C3       C     0.25         0.679487     0.666667     0
C4       C     0.28125      0.641025     0.666667     0
C1       C     0.25         0.705128     0            0
C2       C     0.28125      0.74359      0            0
C3       C     0.25         0.75641      0            0
C4       C     0.28125      0.717948     0            0
C1       C     0.25         0.705128     0.333333     0
C2       C     0.28125      0.74359      0.333333     0
C3       C     0.25         0.75641      0.333333     0
C4       C     0.28125      0.717948     0.333333     0
C1       C     0.25         0.705128     0.666667     0
C2       C     0.28125      0.74359      0.666667     0
C3       C     0.25         0.75641      0.666667     0
C4       C     0.28125      0.717948     0.666667     0
C1       C     0.25         0.782052     0            0
C2       C     0.28125      0.820513     0            0
C3       C     0.25         0.833333     0            0
C4       C     0.28125      0.794872     0            0
C1       C     0.25         0.782052     0.333333     0
C2       C     0.28125      0.820513     0.333333     0
C3       C     0.25         0.833333     0.333333     0
C4       C     0.28125      0.794872     0.333333     0
C1       C     0.25         0.782052     0.666667     0
C2       C     0.28125      0.820513     0.666667     0
C3       C     0.25         0.833333     0.666667     0
C4       C     0.28125      0.794872     0.666667     0
C1       C     0.25         0.858975     0            0
C2       C     0.28125      0.897436     0            0
C3       C     0.25         0.910256     0            0
C4       C     0.28125      0.871795     0            0
C1       C     0.25         0.858975     0.333333     0
C2       C     0.28125      0.897436     0.333333     0
C3       C     0.25         0.910256     0.333333     0
C4       C     0.28125      0.871795     0.333333     0
C1       C     0.25         0.858975     0.666667     0
C2       C     0.28125      0.897436     0.666667     0
C3       C     0.25         0.910256     0.666667     0
C4       C     0.28125      0.871795     0.666667     0
C1       C     0.25         0.935898     0            0
C2       C     0.28125      0.974359     0            0
C3       C     0.25         0.987179     0            0
C4       C     0.28125      0.948718     0            0
C1       C     0.25         0.935898     0.333333     0
C2       C     0.28125      0.974359     0.333333     0
C3       C     0.25         0.987179     0.333333     0
C4       C     0.28125      0.948718     0.333333     0
C1       C     0.25         0.935898     0.666667     0
C2       C     0.28125      0.974359     0.666667     0
C3       C     0.25         0.987179     0.666667     0
C4       C     0.28125      0.948718     0.666667     0
C1       C     0.3125       0.0128208    0            0
C2       C     0.34375      0.0512823    0            0
C3       C     0.3125       0.0641023    0            0
C4       C     0.34375      0.0256408    0            0
C1       C     0.3125       0.0128208    0.333333     0
C2       C     0.34375      0.0512823    0.333333     0
C3       C     0.3125       0.0641023    0.333333     0
C4       C     0.34375      0.0256408    0.333333     0
C1       C     0.3125       0.0128208    0.666667     0
C2       C     0.34375      0.0512823    0.666667     0
C3       C     0.3125       0.0641023    0.666667     0
C4       C     0.34375      0.0256408    0.666667     0
C1       C     0.3125       0.0897438    0            0
C2       C     0.34375      0.128205     0            0
C3       C     0.3125       0.141025     0            0
C4       C     0.34375      0.102564     0            0
C1       C     0.3125       0.0897438    0.333333     0
C2       C     0.34375      0.128205     0.333333     0
C3       C     0.3125       0.141025     0.333333     0
C4       C     0.34375      0.102564     0.333333     0
C1       C     0.3125       0.0897438    0.666667     0
C2       C     0.34375      0.128205     0.666667     0
C3       C     0.3125       0.141025     0.666667     0
C4       C     0.34375      0.102564     0.666667     0
C1       C     0.3125       0.166667     0            0
C2       C     0.34375      0.205128     0            0
C3       C     0.3125       0.217948     0            0
C4       C     0.34375      0.179487     0            0
C1       C     0.3125       0.166667     0.333333     0
C2       C     0.34375      0.205128     0.333333     0
C3       C     0.3125       0.217948     0.333333     0
C4       C     0.34375      0.179487     0.333333     0
C1       C     0.3125       0.166667     0.666667     0
C2       C     0.34375      0.205128     0.666667     0
C3       C     0.3125       0.217948     0.666667     0
C4       C     0.34375      0.179487     0.666667     0
C1       C     0.3125       0.24359      0            0
C2       C     0.34375      0.282052     0            0
C3       C     0.3125       0.294872     0            0
C4       C     0.34375      0.25641      0            0
C1       C     0.3125       0.24359      0.333333     0
C2       C     0.34375      0.282052     0.333333     0
C3       C     0.3125       0.294872     0.333333     0
C4       C     0.34375      0.25641      0.333333     0
C1       C     0.3125       0.24359      0.666667     0
C2       C     0.34375      0.282052     0.666667     0
C3       C     0.3125       0.294872     0.666667     0
C4       C     0.34375      0.25641      0.666667     0
C1       C     0.3125       0.320513     0            0
C2       C     0.34375      0.358975     0            0
C3       C     0.3125       0.371795     0            0
C4       C     0.34375      0.333333     0            0
C1       C     0.3125       0.320513     0.333333     0
C2       C     0.34375      0.358975     0.333333     0
C3       C     0.3125       0.371795     0.333333     0
C4       C     0.34375      0.333333     0.333333     0
C1       C     0.3125       0.320513     0.666667     0
C2       C     0.34375      0.358975     0.666667     0
C3       C     0.3125       0.371795     0.666667     0
C4       C     0.34375      0.333333     0.666667     0
C1       C     0.3125       0.397436     0            0
C2       C     0.34375      0.435898     0            0
C3       C     0.3125       0.448718     0            0
C4       C     0.34375      0.410256     0            0
C1       C     0.3125       0.397436     0.333333     0
C2       C     0.34375      0.435898     0.333333     0
C3       C     0.3125       0.448718     0.333333     0
C4       C     0.34375      0.410256     0.333333     0
C1       C     0.3125       0.397436     0.666667     0
C2       C     0.34375      0.435898     0.666667     0
C3       C     0.3125       0.448718     0.666667     0
C4       C     0.34375      0.410256     0.666667     0
C1       C     0.3125       0.474359     0            0
C2       C     0.34375      0.512821     0            0
C3       C     0.3125       0.525641     0            0
C4       C     0.34375      0.487179     0            0
C1       C     0.3125       0.474359     0.333333     0
C2       C     0.34375      0.512821     0.333333     0
C3       C     0.3125       0.525641     0.333333     0
C4       C     0.34375      0.487179     0.333333     0
C1       C     0.3125       0.474359     0.666667     0
C2       C     0.34375      0.512821     0.666667     0
C3       C     0.3125       0.525641     0.666667     0
C4       C     0.34375      0.487179     0.666667     0
C1       C     0.3125       0.551282     0            0
C2       C     0.34375      0.589744     0            0
C3       C     0.3125       0.602564     0            0
C4       C     0.34375      0.564102     0            0
C1       C     0.3125       0.551282     0.333333     0
C2       C     0.34375      0.589744     0.333333     0
C3       C     0.3125       0.602564     0.333333     0
C4       C     0.34375      0.564102     0.333333     0
C1       C     0.3125       0.551282     0.666667     0
C2       C     0.34375      0.589744     0.666667     0
C3       C     0.3125       0.602564     0.666667     0
C4       C     0.34375      0.564102     0.666667     0
C1       C     0.3125       0.628205     0            0
C2       C     0.34375      0.666667     0            0
C3       C     0.3125       0.679487     0            0
C4       C     0.34375      0.641025     0            0
C1       C     0.3125       0.628205     0.333333     0
C2       C     0.34375      0.666667     0.333333     0
C3       C     0.3125       0.679487     0.333333     0
C4       C     0.34375      0.641025     0.333333     0
C1       C     0.3125       0.628205     0.666667     0
C2       C     0.34375      0.666667     0.666667     0
C3       C     0.3125       0.679487     0.666667     0
C4       C     0.34375      0.641025     0.666667     0
C1       C     0.3125       0.705128     0            0
C2       C     0.34375      0.74359      0            0
C3       C     0.3125       0.75641      0            0
C4       C     0.34375      0.717948     0            0
C1       C     0.3125       0.705128     0.333333     0
C2       C     0.34375      0.74359      0.333333     0
C3       C     0.3125       0.75641      0.333333     0
C4       C     0.34375      0.717948     0.333333     0
C1       C     0.3125       0.705128     0.666667     0
C2       C     0.34375      0.74359      0.666667     0
C3       C     0.3125       0.75641      0.666667     0
C4       C     0.34375      0.717948     0.666667     0
C1       C     0.3125       0.782052     0            0
C2       C     0.34375      0.820513     0            0
C3       C     0.3125       0.833333     0            0
C4       C     0.34375      0.794872     0            0
C1       C     0.3125       0.782052     0.333333     0
C2       C     0.34375      0.820513     0.333333     0
C3       C     0.3125       0.833333     0.333333     0
C4       C     0.34375      0.794872     0.333333     0
C1       C     0.3125       0.782052     0.666667     0
C2       C     0.34375      0.820513     0.666667     0
C3       C     0.3125       0.833333     0.666667     0
C4       C     0.34375      0.794872     0.666667     0
C1       C     0.3125       0.858975     0            0
C2       C     0.34375      0.897436     0            0
C3       C     0.3125       0.910256     0            0
C4       C     0.34375      0.871795     0            0
C1       C     0.3125       0.858975     0.333333     0
C2       C     0.34375      0.897436     0.333333     0
C3       C     0.3125       0.910256     0.333333     0
C4       C     0.34375      0.871795     0.333333     0
C1       C     0.3125       0.858975     0.666667     0
C2       C     0.34375      0.897436     0.666667     0
C3       C     0.3125       0.910256     0.666667     0
C4       C     0.34375      0.871795     0.666667     0
C1       C     0.3125       0.935898     0            0
C2       C     0.34375      0.974359     0            0
C3       C     0.3125       0.987179     0            0
C4       C     0.34375      0.948718     0            0
C1       C     0.3125       0.935898     0.333333     0
C2       C     0.34375      0.974359     0.333333     0
C3       C     0.3125       0.987179     0.333333     0
C4       C     0.34375      0.948718     0.333333     0
C1       C     0.3125       0.935898     0.666667     0
C2       C     0.34375      0.974359     0.666667     0
C3       C     0.3125       0.987179     0.666667     0
C4       C     0.34375      0.948718     0.666667     0
C1       C     0.375        0.0128208    0            0
C2       C     0.40625      0.0512823    0            0
C3       C     0.375        0.0641023    0            0
C4       C     0.40625      0.0256408    0            0
C1       C     0.375        0.0128208    0.333333     0
C2       C     0.40625      0.0512823    0.333333     0
C3       C     0.375        0.0641023    0.333333     0
C4       C     0.40625      0.0256408    0.333333     0
C1       C     0.375        0.0128208    0.666667     0
C2       C     0.40625      0.0512823    0.666667     0
C3       C     0.375        0.0641023    0.666667     0
C4       C     0.40625      0.0256408    0.666667     0
C1       C     0.375        0.0897438    0            0
C2       C     0.40625      0.128205     0            0
C3       C     0.375        0.141025     0            0
C4       C     0.40625      0.102564     0            0
C1       C     0.375        0.0897438    0.333333     0
C2       C     0.40625      0.128205     0.333333     0
C3       C     0.375        0.141025     0.333333     0
C4       C     0.40625      0.102564     0.333333     0
C1       C     0.375        0.0897438    0.666667     0
C2       C     0.40625      0.128205     0.666667     0
C3       C     0.375        0.141025     0.666667     0
C4       C     0.40625      0.102564     0.666667     0
C1       C     0.375        0.166667     0            0
C2       C     0.40625      0.205128     0            0
C3       C     0.375        0.217948     0            0
C4       C     0.40625      0.179487     0            0
C1       C     0.375        0.166667     0.333333     0
C2       C     0.40625      0.205128     0.333333     0
C3       C     0.375        0.217948     0.333333     0
C4       C     0.40625      0.179487     0.333333     0
C1       C     0.375        0.166667     0.666667     0
C2       C     0.40625      0.205128     0.666667     0
C3       C     0.375        0.217948     0.666667     0
C4       C     0.40625      0.179487     0.666667     0
C1       C     0.375        0.24359      0            0
C2       C     0.40625      0.282052     0            0
C3       C     0.375        0.294872     0            0
C4       C     0.40625      0.25641      0            0
C1       C     0.375        0.24359      0.333333     0
C2       C     0.40625      0.282052     0.333333     0
C3       C     0.375        0.294872     0.333333     0
C4       C     0.40625      0.25641      0.333333     0
C1       C     0.375        0.24359      0.666667     0
C2       C     0.40625      0.282052     0.666667     0
C3       C     0.375        0.294872     0.666667     0
C4       C     0.40625      0.25641      0.666667     0
C1       C     0.375        0.320513     0            0
C2       C     0.40625      0.358975     0            0
C3       C     0.375        0.371795     0            0
C4       C     0.40625      0.333333     0            0
C1       C     0.375        0.320513     0.333333     0
C2       C     0.40625      0.358975     0.333333     0
C3       C     0.375        0.371795     0.333333     0
C4       C     0.40625      0.333333     0.333333     0
C1       C     0.375        0.320513     0.666667     0
C2       C     0.40625      0.358975     0.666667     0
C3       C     0.375        0.371795     0.666667     0
C4       C     0.40625      0.333333     0.666667     0
C1       C     0.375        0.397436     0            0
C2       C     0.40625      0.435898     0            0
C3       C     0.375        0.448718     0            0
C4       C     0.40625      0.410256     0            0
C1       C     0.375        0.397436     0.333333     0
C2       C     0.40625      0.435898     0.333333     0
C3       C     0.375        0.448718     0.333333     0
C4       C     0.40625      0.410256     0.333333     0
C1       C     0.375        0.397436     0.666667     0
C2       C     0.40625      0.435898     0.666667     0
C3       C     0.375        0.448718     0.666667     0
C4       C     0.40625      0.410256     0.666667     0
C1       C     0.375        0.474359     0            0
C2       C     0.40625      0.512821     0            0
C3       C     0.375        0.525641     0            0
C4       C     0.40625      0.487179     0            0
C1       C     0.375        0.474359     0.333333     0
C2       C     0.40625      0.512821     0.333333     0
C3       C     0.375        0.525641     0.333333     0
C4       C     0.40625      0.487179     0.333333     0
C1       C     0.375        0.474359     0.666667     0
C2       C     0.40625      0.512821     0.666667     0
C3       C     0.375        0.525641     0.666667     0
C4       C     0.40625      0.487179     0.666667     0
C1       C     0.375        0.551282     0            0
C2       C     0.40625      0.589744     0            0
C3       C     0.375        0.602564     0            0
C4       C     0.40625      0.564102     0            0
C1       C     0.375        0.551282     0.333333     0
C2       C     0.40625      0.589744     0.333333     0
C3       C     0.375        0.602564     0.333333     0
C4       C     0.40625      0.564102     0.333333     0
C1       C     0.375        0.551282     0.666667     0
C2       C     0.40625      0.589744     0.666667     0
C3       C     0.375        0.602564     0.666667     0
C4       C     0.40625      0.564102     0.666667     0
C1       C     0.375        0.628205     0            0
C2       C     0.40625      0.666667     0            0
C3       C     0.375        0.679487     0            0
C4       C     0.40625      0.641025     0            0
C1       C     0.375        0.628205     0.333333     0
C2       C     0.40625      0.666667     0.333333     0
C3       C     0.375        0.679487     0.333333     0
C4       C     0.40625      0.641025     0.333333     0
C1       C     0.375        0.628205     0.666667     0
C2       C     0.40625      0.666667     0.666667     0
C3       C     0.375        0.679487     0.666667     0
C4       C     0.40625      0.641025     0.666667     0
C1       C     0.375        0.705128     0            0
C2       C     0.40625      0.74359      0            0
C3       C     0.375        0.75641      0            0
C4       C     0.40625      0.717948     0            0
C1       C     0.375        0.705128     0.333333     0
C2       C     0.40625      0.74359      0.333333     0
C3       C     0.375        0.75641      0.333333     0
C4       C     0.40625      0.717948     0.333333     0
C1       C     0.375        0.705128     0.666667     0
C2       C     0.40625      0.74359      0.666667     0
C3       C     0.375        0.75641      0.666667     0
C4       C     0.40625      0.717948     0.666667     0
C1       C     0.375        0.782052     0            0
C2       C     0.40625      0.820513     0            0
C3       C     0.375        0.833333     0            0
C4       C     0.40625      0.794872     0            0
C1       C     0.375        0.782052     0.333333     0
C2       C     0.40625      0.820513     0.333333     0
C3       C     0.375        0.833333     0.333333     0
C4       C     0.40625      0.794872     0.333333     0
C1       C     0.375        0.782052     0.666667     0
C2       C     0.40625      0.820513     0.666667     0
C3       C     0.375        0.833333     0.666667     0
C4       C     0.40625      0.794872     0.666667     0
C1       C     0.375        0.858975     0            0
C2       C     0.40625      0.897436     0            0
C3       C     0.375        0.910256     0            0
C4       C     0.40625      0.871795     0            0
C1       C     0.375        0.858975     0.333333     0
C2       C     0.40625      0.897436     0.333333     0
C3       C     0.375        0.910256     0.333333     0
C4       C     0.40625      0.871795     0.333333     0
C1       C     0.375        0.858975     0.666667     0
C2       C     0.40625      0.897436     0.666667     0
C3       C     0.375        0.910256     0.666667     0
C4       C     0.40625      0.871795     0.666667     0
C1       C     0.375        0.935898     0            0
C2       C     0.40625      0.974359     0            0
C3       C     0.375        0.987179     0            0
C4       C     0.40625      0.948718     0            0
C1       C     0.375        0.935898     0.333333     0
C2       C     0.40625      0.974359     0.333333     0
C3       C     0.375        0.987179     0.333333     0
C4       C     0.40625      0.948718     0.333333     0
C1       C     0.375        0.935898     0.666667     0
C2       C     0.40625      0.974359     0.666667     0
C3       C     0.375        0.987179     0.666667     0
C4       C     0.40625      0.948718     0.666667     0
C1       C     0.4375       0.0128208    0            0
C2       C     0.46875      0.0512823    0            0
C3       C     0.4375       0.0641023    0            0
C4       C     0.46875      0.0256408    0            0
C1       C     0.4375       0.0128208    0.333333     0
C2       C     0.46875      0.0512823    0.333333     0
C3       C     0.4375       0.0641023    0.333333     0
C4       C     0.46875      0.0256408    0.333333     0
C1       C     0.4375       0.0128208    0.666667     0
C2       C     0.46875      0.0512823    0.666667     0
C3       C     0.4375       0.0641023    0.666667     0
C4       C     0.46875      0.0256408    0.666667     0
C1       C     0.4375       0.0897438    0            0
C2       C     0.46875      0.128205     0            0
C3       C     0.4375       0.141025     0            0
C4       C     0.46875      0.102564     0            0
C1       C     0.4375       0.0897438    0.333333     0
C2       C     0.46875      0.128205     0.333333     0
C3       C     0.4375       0.141025     0.333333     0
C4       C     0.46875      0.102564     0.333333     0
C1       C     0.4375       0.0897438    0.666667     0
C2       C     0.46875      0.128205     0.666667     0
C3       C     0.4375       0.141025     0.666667     0
C4       C     0.46875      0.102564     0.666667     0
C1       C     0.4375       0.166667     0            0
C2       C     0.46875      0.205128     0            0
C3       C     0.4375       0.217948     0            0
C4       C     0.46875      0.179487     0            0
C1       C     0.4375       0.166667     0.333333     0
C2       C     0.46875      0.205128     0.333333     0
C3       C     0.4375       0.217948     0.333333     0
C4       C     0.46875      0.179487     0.333333     0
C1       C     0.4375       0.166667     0.666667     0
C2       C     0.46875      0.205128     0.666667     0
C3       C     0.4375       0.217948     0.666667     0
C4       C     0.46875      0.179487     0.666667     0
C1       C     0.4375       0.24359      0            0
C2       C     0.46875      0.282052     0            0
C3       C     0.4375       0.294872     0            0
C4       C     0.46875      0.25641      0            0
C1       C     0.4375       0.24359      0.333333     0
C2       C     0.46875      0.282052     0.333333     0
C3       C     0.4375       0.294872     0.333333     0
C4       C     0.46875      0.25641      0.333333     0
C1       C     0.4375       0.24359      0.666667     0
C2       C     0.46875      0.282052     0.666667     0
C3       C     0.4375       0.294872     0.666667     0
C4       C     0.46875      0.25641      0.666667     0
C1       C     0.4375       0.320513     0            0
C2       C     0.46875      0.358975     0            0
C3       C     0.4375       0.371795     0            0
C4       C     0.46875      0.333333     0            0
C1       C     0.4375       0.320513     0.333333     0
C2       C     0.46875      0.358975     0.333333     0
C3       C     0.4375       0.371795     0.333333     0
C4       C     0.46875      0.333333     0.333333     0
C1       C     0.4375       0.320513     0.666667     0
C2       C     0.46875      0.358975     0.666667     0
C3       C     0.4375       0.371795     0.666667     0
C4       C     0.46875      0.333333     0.666667     0
C1       C     0.4375       0.397436     0            0
C2       C     0.46875      0.435898     0            0
C3       C     0.4375       0.448718     0            0
C4       C     0.46875      0.410256     0            0
C1       C     0.4375       0.397436     0.333333     0
C2       C     0.46875      0.435898     0.333333     0
C3       C     0.4375       0.448718     0.333333     0
C4       C     0.46875      0.410256     0.333333     0
C1       C     0.4375       0.397436     0.666667     0
C2       C     0.46875      0.435898     0.666667     0
C3       C     0.4375       0.448718     0.666667     0
C4       C     0.46875      0.410256     0.666667     0
C1       C     0.4375       0.474359     0            0
C2       C     0.46875      0.512821     0            0
C3       C     0.4375       0.525641     0            0
C4       C     0.46875      0.487179     0            0
C1       C     0.4375       0.474359     0.333333     0
C2       C     0.46875      0.512821     0.333333     0
C3       C     0.4375       0.525641     0.333333     0
C4       C     0.46875      0.487179     0.333333     0
C1       C     0.4375       0.474359     0.666667     0
C2       C     0.46875      0.512821     0.666667     0
C3       C     0.4375       0.525641     0.666667     0
C4       C     0.46875      0.487179     0.666667     0
C1       C     0.4375       0.551282     0            0
C2       C     0.46875      0.589744     0            0
C3       C     0.4375       0.602564     0            0
C4       C     0.46875      0.564102     0            0
C1       C     0.4375       0.551282     0.333333     0
C2       C     0.46875      0.589744     0.333333     0
C3       C     0.4375       0.602564     0.333333     0
C4       C     0.46875      0.564102     0.333333     0
C1       C     0.4375       0.551282     0.666667     0
C2       C     0.46875      0.589744     0.666667     0
C3       C     0.4375       0.602564     0.666667     0
C4       C     0.46875      0.564102     0.666667     0
C1       C     0.4375       0.628205     0            0
C2       C     0.46875      0.666667     0            0
C3       C     0.4375       0.679487     0            0
C4       C     0.46875      0.641025     0            0
C1       C     0.4375       0.628205     0.333333     0
C2       C     0.46875      0.666667     0.333333     0
C3       C     0.4375       0.679487     0.333333     0
C4       C     0.46875      0.641025     0.333333     0
C1       C     0.4375       0.628205     0.666667     0
C2       C     0.46875      0.666667     0.666667     0
C3       C     0.4375       0.679487     0.666667     0
C4       C     0.46875      0.641025     0.666667     0
C1       C     0.4375       0.705128     0            0
C2       C     0.46875      0.74359      0            0
C3       C     0.4375       0.75641      0            0
C4       C     0.46875      0.717948     0            0
C1       C     0.4375       0.705128     0.333333     0
C2       C     0.46875      0.74359      0.333333     0
C3       C     0.4375       0.75641      0.333333     0
C4       C     0.46875      0.717948     0.333333     0
C1       C     0.4375       0.705128     0.666667     0
C2       C     0.46875      0.74359      0.666667     0
C3       C     0.4375       0.75641      0.666667     0
C4       C     0.46875      0.717948     0.666667     0
C1       C     0.4375       0.782052     0            0
C2       C     0.46875      0.820513     0            0
C3       C     0.4375       0.833333     0            0
C4       C     0.46875      0.794872     0            0
C1       C     0.4375       0.782052     0.333333     0
C2       C     0.46875      0.820513     0.333333     0
C3       C     0.4375       0.833333     0.333333     0
C4       C     0.46875      0.794872     0.333333     0
C1       C     0.4375       0.782052     0.666667     0
C2       C     0.46875      0.820513     0.666667     0
C3       C     0.4375       0.833333     0.666667     0
C4       C     0.46875      0.794872     0.666667     0
C1       C     0.4375       0.858975     0            0
C2       C     0.46875      0.897436     0            0
C3       C     0.4375       0.910256     0            0
C4       C     0.46875      0.871795     0            0
C1       C     0.4375       0.858975     0.333333     0
C2       C     0.46875      0.897436     0.333333     0
C3       C     0.4375       0.910256     0.333333     0
C4       C     0.46875      0.871795     0.333333     0
C1       C     0.4375       0.858975     0.666667     0
C2       C     0.46875      0.897436     0.666667     0
C3       C     0.4375       0.910256     0.666667     0
C4       C     0.46875      0.871795     0.666667     0
C1       C     0.4375       0.935898     0            0
C2       C     0.46875      0.974359     0            0
C3       C     0.4375       0.987179     0            0
C4       C     0.46875      0.948718     0            0
C1       C     0.4375       0.935898     0.333333     0
C2       C     0.46875      0.974359     0.333333     0
C3       C     0.4375       0.987179     0.333333     0
C4       C     0.46875      0.948718     0.333333     0
C1       C     0.4375       0.935898     0.666667     0
C2       C     0.46875      0.974359     0.666667     0
C3       C     0.4375       0.987179     0.666667     0
C4       C     0.46875      0.948718     0.666667     0
C1       C     0.5          0.0128208    0            0
C2       C     0.53125      0.0512823    0            0
C3       C     0.5          0.0641023    0            0
C4       C     0.53125      0.0256408    0            0
C1       C     0.5          0.0128208    0.333333     0
C2       C     0.53125      0.0512823    0.333333     0
C3       C     0.5          0.0641023    0.333333     0
C4       C     0.53125      0.0256408    0.333333     0
C1       C     0.5          0.0128208    0.666667     0
C2       C     0.53125      0.0512823    0.666667     0
C3       C     0.5          0.0641023    0.666667     0
C4       C     0.53125      0.0256408    0.666667     0
C1       C     0.5          0.0897438    0            0
C2       C     0.53125      0.128205     0            0
C3       C     0.5          0.141025     0            0
C4       C     0.53125      0.102564     0            0
C1       C     0.5          0.0897438    0.333333     0
C2       C     0.53125      0.128205     0.333333     0
C3       C     0.5          0.141025     0.333333     0
C4       C     0.53125      0.102564     0.333333     0
C1       C     0.5          0.0897438    0.666667     0
C2       C     0.53125      0.128205     0.666667     0
C3       C     0.5          0.141025     0.666667     0
C4       C     0.53125      0.102564     0.666667     0
C1       C     0.5          0.166667     0            0
C2       C     0.53125      0.205128     0            0
C3       C     0.5          0.217948     0            0
C4       C     0.53125      0.179487     0            0
C1       C     0.5          0.166667     0.333333     0
C2       C     0.53125      0.205128     0.333333     0
C3       C     0.5          0.217948     0.333333     0
C4       C     0.53125      0.179487     0.333333     0
C1       C     0.5          0.166667     0.666667     0
C2       C     0.53125      0.205128     0.666667     0
C3       C     0.5          0.217948     0.666667     0
C4       C     0.53125      0.179487     0.666667     0
C1       C     0.5          0.24359      0            0
C2       C     0.53125      0.282052     0            0
C3       C     0.5          0.294872     0            0
C4       C     0.53125      0.25641      0            0
C1       C     0.5          0.24359      0.333333     0
C2       C     0.53125      0.282052     0.333333     0
C3       C     0.5          0.294872     0.333333     0
C4       C     0.53125      0.25641      0.333333     0
C1       C     0.5          0.24359      0.666667     0
C2       C     0.53125      0.282052     0.666667     0
C3       C     0.5          0.294872     0.666667     0
C4       C     0.53125      0.25641      0.666667     0
C1       C     0.5          0.320513     0            0
C2       C     0.53125      0.358975     0            0
C3       C     0.5          0.371795     0            0
C4       C     0.53125      0.333333     0            0
C1       C     0.5          0.320513     0.333333     0
C2       C     0.53125      0.358975     0.333333     0
C3       C     0.5          0.371795     0.333333     0
C4       C     0.53125      0.333333     0.333333     0
C1       C     0.5          0.320513     0.666667     0
C2       C     0.53125      0.358975     0.666667     0
C3       C     0.5          0.371795     0.666667     0
C4       C     0.53125      0.333333     0.666667     0
C1       C     0.5          0.397436     0            0
C2       C     0.53125      0.435898     0            0
C3       C     0.5          0.448718     0            0
C4       C     0.53125      0.410256     0            0
C1       C     0.5          0.397436     0.333333     0
C2       C     0.53125      0.435898     0.333333     0
C3       C     0.5          0.448718     0.333333     0
C4       C     0.53125      0.410256     0.333333     0
C1       C     0.5          0.397436     0.666667     0
C2       C     0.53125      0.435898     0.666667     0
C3       C     0.5          0.448718     0.666667     0
C4       C     0.53125      0.410256     0.666667     0
C1       C     0.5          0.474359     0            0
C2       C     0.53125      0.512821     0            0
C3       C     0.5          0.525641     0            0
C4       C     0.53125      0.487179     0            0
C1       C     0.5          0.474359     0.333333     0
C2       C     0.53125      0.512821     0.333333     0
C3       C     0.5          0.525641     0.333333     0
C4       C     0.53125      0.487179     0.333333     0
C1       C     0.5          0.474359     0.666667     0
C2       C     0.53125      0.512821     0.666667     0
C3       C     0.5          0.525641     0.666667     0
C4       C     0.53125      0.487179     0.666667     0
C1       C     0.5          0.551282     0            0
C2       C     0.53125      0.589744     0            0
C3       C     0.5          0.602564     0            0
C4       C     0.53125      0.564102     0            0
C1       C     0.5          0.551282     0.333333     0
C2       C     0.53125      0.589744     0.333333     0
C3       C     0.5          0.602564     0.333333     0
C4       C     0.53125      0.564102     0.333333     0
C1       C     0.5          0.551282     0.666667     0
C2       C     0.53125      0.589744     0.666667     0
C3       C     0.5          0.602564     0.666667     0
C4       C     0.53125      0.564102     0.666667     0
C1       C     0.5          0.628205     0            0
C2       C     0.53125      0.666667     0            0
C3       C     0.5          0.679487     0            0
C4       C     0.53125      0.641025     0            0
C1       C     0.5          0.628205     0.333333     0
C2       C     0.53125      0.666667     0.333333     0
C3       C     0.5          0.679487     0.333333     0
C4       C     0.53125      0.641025     0.333333     0
C1       C     0.5          0.628205     0.666667     0
C2       C     0.53125      0.666667     0.666667     0
C3       C     0.5          0.679487     0.666667     0
C4       C     0.53125      0.641025     0.666667     0
C1       C     0.5          0.705128     0            0
C2       C     0.53125      0.74359      0            0
C3       C     0.5          0.75641      0            0
C4       C     0.53125      0.717948     0            0
C1       C     0.5          0.705128     0.333333     0
C2       C     0.53125      0.74359      0.333333     0
C3       C     0.5          0.75641      0.333333     0
C4       C     0.53125      0.717948     0.333333     0
C1       C     0.5          0.705128     0.666667     0
C2       C     0.53125      0.74359      0.666667     0
C3       C     0.5          0.75641      0.666667     0
C4       C     0.53125      0.717948     0.666667     0
C1       C     0.5          0.782052     0            0
C2       C     0.53125      0.820513     0            0
C3       C     0.5          0.833333     0            0
C4       C     0.53125      0.794872     0            0
C1       C     0.5          0.782052     0.333333     0
C2       C     0.53125      0.820513     0.333333     0
C3       C     0.5          0.833333     0.333333     0
C4       C     0.53125      0.794872     0.333333     0
C1       C     0.5          0.782052     0.666667     0
C2       C     0.53125      0.820513     0.666667     0
C3       C     0.5          0.833333     0.666667     0
C4       C     0.53125      0.794872     0.666667     0
C1       C     0.5          0.858975     0            0
C2       C     0.53125      0.897436     0            0
C3       C     0.5          0.910256     0            0
C4       C     0.53125      0.871795     0            0
C1       C     0.5          0.858975     0.333333     0
C2       C     0.53125      0.897436     0.333333     0
C3       C     0.5          0.910256     0.333333     0
C4       C     0.53125      0.871795     0.333333     0
C1       C     0.5          0.858975     0.666667     0
C2       C     0.53125      0.897436     0.666667     0
C3       C     0.5          0.910256     0.666667     0
C4       C     0.53125      0.871795     0.666667     0
C1       C     0.5          0.935898     0            0
C2       C     0.53125      0.974359     0            0
C3       C     0.5          0.987179     0            0
C4       C     0.53125      0.948718     0            0
C1       C     0.5          0.935898     0.333333     0
C2       C     0.53125      0.974359     0.333333     0
C3       C     0.5          0.987179     0.333333     0
C4       C     0.53125      0.948718     0.333333     0
C1       C     0.5          0.935898     0.666667     0
C2       C     0.53125      0.974359     0.666667     0
C3       C     0.5          0.987179     0.666667     0
C4       C     0.53125      0.948718     0.666667     0
C1       C     0.5625       0.0128208    0            0
C2       C     0.59375      0.0512823    0            0
C3       C     0.5625       0.0641023    0            0
C4       C     0.59375      0.0256408    0            0
C1       C     0.5625       0.0128208    0.333333     0
C2       C     0.59375      0.0512823    0.333333     0
C3       C     0.5625       0.0641023    0.333333     0
C4       C     0.59375      0.0256408    0.333333     0
C1       C     0.5625       0.0128208    0.666667     0
C2       C     0.59375      0.0512823    0.666667     0
C3       C     0.5625       0.0641023    0.666667     0
C4       C     0.59375      0.0256408    0.666667     0
C1       C     0.5625       0.0897438    0            0
C2       C     0.59375      0.128205     0            0
C3       C     0.5625       0.141025     0            0
C4       C     0.59375      0.102564     0            0
C1       C     0.5625       0.0897438    0.333333     0
C2       C     0.59375      0.128205     0.333333     0
C3       C     0.5625       0.141025     0.333333     0
C4       C     0.59375      0.102564     0.333333     0
C1       C     0.5625       0.0897438    0.666667     0
C2       C     0.59375      0.128205     0.666667     0
C3       C     0.5625       0.141025     0.666667     0
C4       C     0.59375      0.102564     0.666667     0
C1       C     0.5625       0.166667     0            0
C2       C     0.59375      0.205128     0            0
C3       C     0.5625       0.217948     0            0
C4       C     0.59375      0.179487     0            0
C1       C     0.5625       0.166667     0.333333     0
C2       C     0.59375      0.205128     0.333333     0
C3       C     0.5625       0.217948     0.333333     0
C4       C     0.59375      0.179487     0.333333     0
C1       C     0.5625       0.166667     0.666667     0
C2       C     0.59375      0.205128     0.666667     0
C3       C     0.5625       0.217948     0.666667     0
C4       C     0.59375      0.179487     0.666667     0
C1       C     0.5625       0.24359      0            0
C2       C     0.59375      0.282052     0            0
C3       C     0.5625       0.294872     0            0
C4       C     0.59375      0.25641      0            0
C1       C     0.5625       0.24359      0.333333     0
C2       C     0.59375      0.282052     0.333333     0
C3       C     0.5625       0.294872     0.333333     0
C4       C     0.59375      0.25641      0.333333     0
C1       C     0.5625       0.24359      0.666667     0
C2       C     0.59375      0.282052     0.666667     0
C3       C     0.5625       0.294872     0.666667     0
C4       C     0.59375      0.25641      0.666667     0
C1       C     0.5625       0.320513     0            0
C2       C     0.59375      0.358975     0            0
C3       C     0.5625       0.371795     0            0
C4       C     0.59375      0.333333     0            0
C1       C     0.5625       0.320513     0.333333     0
C2       C     0.59375      0.358975     0.333333     0
C3       C     0.5625       0.371795     0.333333     0
C4       C     0.59375      0.333333     0.333333     0
C1       C     0.5625       0.320513     0.666667     0
C2       C     0.59375      0.358975     0.666667     0
C3       C     0.5625       0.371795     0.666667     0
C4       C     0.59375      0.333333     0.666667     0
C1       C     0.5625       0.397436     0            0
C2       C     0.59375      0.435898     0            0
C3       C     0.5625       0.448718     0            0
C4       C     0.59375      0.410256     0            0
C1       C     0.5625       0.397436     0.333333     0
C2       C     0.59375      0.435898     0.333333     0
C3       C     0.5625       0.448718     0.333333     0
C4       C     0.59375      0.410256     0.333333     0
C1       C     0.5625       0.397436     0.666667     0
C2       C     0.59375      0.435898     0.666667     0
C3       C     0.5625       0.448718     0.666667     0
C4       C     0.59375      0.410256     0.666667     0
C1       C     0.5625       0.474359     0            0
C2       C     0.59375      0.512821     0            0
C3       C     0.5625       0.525641     0            0
C4       C     0.59375      0.487179     0            0
C1       C     0.5625       0.474359     0.333333     0
C2       C     0.59375      0.512821     0.333333     0
C3       C     0.5625       0.525641     0.333333     0
C4       C     0.59375      0.487179     0.333333     0
C1       C     0.5625       0.474359     0.666667     0
C2       C     0.59375      0.512821     0.666667     0
C3       C     0.5625       0.525641     0.666667     0
C4       C     0.59375      0.487179     0.666667     0
C1       C     0.5625       0.551282     0            0
C2       C     0.59375      0.589744     0            0
C3       C     0.5625       0.602564     0            0
C4       C     0.59375      0.564102     0            0
C1       C     0.5625       0.551282     0.333333     0
C2       C     0.59375      0.589744     0.333333     0
C3       C     0.5625       0.602564     0.333333     0
C4       C     0.59375      0.564102     0.333333     0
C1       C     0.5625       0.551282     0.666667     0
C2       C     0.59375      0.589744     0.666667     0
C3       C     0.5625       0.602564     0.666667     0
C4       C     0.59375      0.564102     0.666667     0
C1       C     0.5625       0.628205     0            0
C2       C     0.59375      0.666667     0            0
C3       C     0.5625       0.679487     0            0
C4       C     0.59375      0.641025     0            0
C1       C     0.5625       0.628205     0.333333     0
C2       C     0.59375      0.666667     0.333333     0
C3       C     0.5625       0.679487     0.333333     0
C4       C     0.59375      0.641025     0.333333     0
C1       C     0.5625       0.628205     0.666667     0
C2       C     0.59375      0.666667     0.666667     0
C3       C     0.5625       0.679487     0.666667     0
C4       C     0.59375      0.641025     0.666667     0
C1       C     0.5625       0.705128     0            0
C2       C     0.59375      0.74359      0            0
C3       C     0.5625       0.75641      0            0
C4       C     0.59375      0.717948     0            0
C1       C     0.5625       0.705128     0.333333     0
C2       C     0.59375      0.74359      0.333333     0
C3       C     0.5625       0.75641      0.333333     0
C4       C     0.59375      0.717948     0.333333     0
C1       C     0.5625       0.705128     0.666667     0
C2       C     0.59375      0.74359      0.666667     0
C3       C     0.5625       0.75641      0.666667     0
C4       C     0.59375      0.717948     0.666667     0
C1       C     0.5625       0.782052     0            0
C2       C     0.59375      0.820513     0            0
C3       C     0.5625       0.833333     0            0
C4       C     0.59375      0.794872     0            0
C1       C     0.5625       0.782052     0.333333     0
C2       C     0.59375      0.820513     0.333333     0
C3       C     0.5625       0.833333     0.333333     0
C4       C     0.59375      0.794872     0.333333     0
C1       C     0.5625       0.782052     0.666667     0
C2       C     0.59375      0.820513     0.666667     0
C3       C     0.5625       0.833333     0.666667     0
C4       C     0.59375      0.794872     0.666667     0
C1       C     0.5625       0.858975     0            0
C2       C     0.59375      0.897436     0            0
C3       C     0.5625       0.910256     0            0
C4       C     0.59375      0.871795     0            0
C1       C     0.5625       0.858975     0.333333     0
C2       C     0.59375      0.897436     0.333333     0
C3       C     0.5625       0.910256     0.333333     0
C4       C     0.59375      0.871795     0.333333     0
C1       C     0.5625       0.858975     0.666667     0
C2       C     0.59375      0.897436     0.666667     0
C3       C     0.5625       0.910256     0.666667     0
C4       C     0.59375      0.871795     0.666667     0
C1       C     0.5625       0.935898     0            0
C2       C     0.59375      0.974359     0            0
C3       C     0.5625       0.987179     0            0
C4       C     0.59375      0.948718     0            0
C1       C     0.5625       0.935898     0.333333     0
C2       C     0.59375      0.974359     0.333333     0
C3       C     0.5625       0.987179     0.333333     0
C4       C     0.59375      0.948718     0.333333     0
C1       C     0.5625       0.935898     0.666667     0
C2       C     0.59375      0.974359     0.666667     0
C3       C     0.5625       0.987179     0.666667     0
C4       C     0.59375      0.948718     0.666667     0
C1       C     0.625        0.0128208    0            0
C2       C     0.65625      0.0512823    0            0
C3       C     0.625        0.0641023    0            0
C4       C     0.65625      0.0256408    0            0
C1       C     0.625        0.0128208    0.333333     0
C2       C     0.65625      0.0512823    0.333333     0
C3       C     0.625        0.0641023    0.333333     0
C4       C     0.65625      0.0256408    0.333333     0
C1       C     0.625        0.0128208    0.666667     0
C2       C     0.65625      0.0512823    0.666667     0
C3       C     0.625        0.0641023    0.666667     0
C4       C     0.65625      0.0256408    0.666667     0
C1       C     0.625        0.0897438    0            0
C2       C     0.65625      0.128205     0            0
C3       C     0.625        0.141025     0            0
C4       C     0.65625      0.102564     0            0
C1       C     0.625        0.0897438    0.333333     0
C2       C     0.65625      0.128205     0.333333     0
C3       C     0.625        0.141025     0.333333     0
C4       C     0.65625      0.102564     0.333333     0
C1       C     0.625        0.0897438    0.666667     0
C2       C     0.65625      0.128205     0.666667     0
C3       C     0.625        0.141025     0.666667     0
C4       C     0.65625      0.102564     0.666667     0
C1       C     0.625        0.166667     0            0
C2       C     0.65625      0.205128     0            0
C3       C     0.625        0.217948     0            0
C4       C     0.65625      0.179487     0            0
C1       C     0.625        0.166667     0.333333     0
C2       C     0.65625      0.205128     0.333333     0
C3       C     0.625        0.217948     0.333333     0
C4       C     0.65625      0.179487     0.333333     0
C1       C     0.625        0.166667     0.666667     0
C2       C     0.65625      0.205128     0.666667     0
C3       C     0.625        0.217948     0.666667     0
C4       C     0.65625      0.179487     0.666667     0
C1       C     0.625        0.24359      0            0
C2       C     0.65625      0.282052     0            0
C3       C     0.625        0.294872     0            0
C4       C     0.65625      0.25641      0            0
C1       C     0.625        0.24359      0.333333     0
C2       C     0.65625      0.282052     0.333333     0
C3       C     0.625        0.294872     0.333333     0
C4       C     0.65625      0.25641      0.333333     0
C1       C     0.625        0.24359      0.666667     0
C2       C     0.65625      0.282052     0.666667     0
C3       C     0.625        0.294872     0.666667     0
C4       C     0.65625      0.25641      0.666667     0
C1       C     0.625        0.320513     0            0
C2       C     0.65625      0.358975     0            0
C3       C     0.625        0.371795     0            0
C4       C     0.65625      0.333333     0            0
C1       C     0.625        0.320513     0.333333     0
C2       C     0.65625      0.358975     0.333333     0
C3       C     0.625        0.371795     0.333333     0
C4       C     0.65625      0.333333     0.333333     0
C1       C     0.625        0.320513     0.666667     0
C2       C     0.65625      0.358975     0.666667     0
C3       C     0.625        0.371795     0.666667     0
C4       C     0.65625      0.333333     0.666667     0
C1       C     0.625        0.397436     0            0
C2       C     0.65625      0.435898     0            0
C3       C     0.625        0.448718     0            0
C4       C     0.65625      0.410256     0            0
C1       C     0.625        0.397436     0.333333     0
C2       C     0.65625      0.435898     0.333333     0
C3       C     0.625        0.448718     0.333333     0
C4       C     0.65625      0.410256     0.333333     0
C1       C     0.625        0.397436     0.666667     0
C2       C     0.65625      0.435898     0.666667     0
C3       C     0.625        0.448718     0.666667     0
C4       C     0.65625      0.410256     0.666667     0
C1       C     0.625        0.474359     0            0
C2       C     0.65625      0.512821     0            0
C3       C     0.625        0.525641     0            0
C4       C     0.65625      0.487179     0            0
C1       C     0.625        0.474359     0.333333     0
C2       C     0.65625      0.512821     0.333333     0
C3       C     0.625        0.525641     0.333333     0
C4       C     0.65625      0.487179     0.333333     0
C1       C     0.625        0.474359     0.666667     0
C2       C     0.65625      0.512821     0.666667     0
C3       C     0.625        0.525641     0.666667     0
C4       C     0.65625      0.487179     0.666667     0
C1       C     0.625        0.551282     0            0
C2       C     0.65625      0.589744     0            0
C3       C     0.625        0.602564     0            0
C4       C     0.65625      0.564102     0            0
C1       C     0.625        0.551282     0.333333     0
C2       C     0.65625      0.589744     0.333333     0
C3       C     0.625        0.602564     0.333333     0
C4       C     0.65625      0.564102     0.333333     0
C1       C     0.625        0.551282     0.666667     0
C2       C     0.65625      0.589744     0.666667     0
C3       C     0.625        0.602564     0.666667     0
C4       C     0.65625      0.564102     0.666667     0
C1       C     0.625        0.628205     0            0
C2       C     0.65625      0.666667     0            0
C3       C     0.625        0.679487     0            0
C4       C     0.65625      0.641025     0            0
C1       C     0.625        0.628205     0.333333     0
C2       C     0.65625      0.666667     0.333333     0
C3       C     0.625        0.679487     0.333333     0
C4       C     0.65625      0.641025     0.333333     0
C1       C     0.625        0.628205     0.666667     0
C2       C     0.65625      0.666667     0.666667     0
C3       C     0.625        0.679487     0.666667     0
C4       C     0.65625      0.641025     0.666667     0
C1       C     0.625        0.705128     0            0
C2       C     0.65625      0.74359      0            0
C3       C     0.625        0.75641      0            0
C4       C     0.65625      0.717948     0            0
C1       C     0.625        0.705128     0.333333     0
C2       C     0.65625      0.74359      0.333333     0
C3       C     0.625        0.75641      0.333333     0
C4       C     0.65625      0.717948     0.333333     0
C1       C     0.625        0.705128     0.666667     0
C2       C     0.65625      0.74359      0.666667     0
C3       C     0.625        0.75641      0.666667     0
C4       C     0.65625      0.717948     0.666667     0
C1       C     0.625        0.782052     0            0
C2       C     0.65625      0.820513     0            0
C3       C     0.625        0.833333     0            0
C4       C     0.65625      0.794872     0            0
C1       C     0.625        0.782052     0.333333     0
C2       C     0.65625      0.820513     0.333333     0
C3       C     0.625        0.833333     0.333333     0
C4       C     0.65625      0.794872     0.333333     0
C1       C     0.625        0.782052     0.666667     0
C2       C     0.65625      0.820513     0.666667     0
C3       C     0.625        0.833333     0.666667     0
C4       C     0.65625      0.794872     0.666667     0
C1       C     0.625        0.858975     0            0
C2       C     0.65625      0.897436     0            0
C3       C     0.625        0.910256     0            0
C4       C     0.65625      0.871795     0            0
C1       C     0.625        0.858975     0.333333     0
C2       C     0.65625      0.897436     0.333333     0
C3       C     0.625        0.910256     0.333333     0
C4       C     0.65625      0.871795     0.333333     0
C1       C     0.625        0.858975     0.666667     0
C2       C     0.65625      0.897436     0.666667     0
C3       C     0.625        0.910256     0.666667     0
C4       C     0.65625      0.871795     0.666667     0
C1       C     0.625        0.935898     0            0
C2       C     0.65625      0.974359     0            0
C3       C     0.625        0.987179     0            0
C4       C     0.65625      0.948718     0            0
C1       C     0.625        0.935898     0.333333     0
C2       C     0.65625      0.974359     0.333333     0
C3       C     0.625        0.987179     0.333333     0
C4       C     0.65625      0.948718     0.333333     0
C1       C     0.625        0.935898     0.666667     0
C2       C     0.65625      0.974359     0.666667     0
C3       C     0.625        0.987179     0.666667     0
C4       C     0.65625      0.948718     0.666667     0
C1       C     0.6875       0.0128208    0            0
C2       C     0.71875      0.0512823    0            0
C3       C     0.6875       0.0641023    0            0
C4       C     0.71875      0.0256408    0            0
C1       C     0.6875       0.0128208    0.333333     0
C2       C     0.71875      0.0512823    0.333333     0
C3       C     0.6875       0.0641023    0.333333     0
C4       C     0.71875      0.0256408    0.333333     0
C1       C     0.6875       0.0128208    0.666667     0
C2       C     0.71875      0.0512823    0.666667     0
C3       C     0.6875       0.0641023    0.666667     0
C4       C     0.71875      0.0256408    0.666667     0
C1       C     0.6875       0.0897438    0            0
C2       C     0.71875      0.128205     0            0
C3       C     0.6875       0.141025     0            0
C4       C     0.71875      0.102564     0            0
C1       C     0.6875       0.0897438    0.333333     0
C2       C     0.71875      0.128205     0.333333     0
C3       C     0.6875       0.141025     0.333333     0
C4       C     0.71875      0.102564     0.333333     0
C1       C     0.6875       0.0897438    0.666667     0
C2       C     0.71875      0.128205     0.666667     0
C3       C     0.6875       0.141025     0.666667     0
C4       C     0.71875      0.102564     0.666667     0
C1       C     0.6875       0.166667     0            0
C2       C     0.71875      0.205128     0            0
C3       C     0.6875       0.217948     0            0
C4       C     0.71875      0.179487     0            0
C1       C     0.6875       0.166667     0.333333     0
C2       C     0.71875      0.205128     0.333333     0
C3       C     0.6875       0.217948     0.333333     0
C4       C     0.71875      0.179487     0.333333     0
C1       C     0.6875       0.166667     0.666667     0
C2       C     0.71875      0.205128     0.666667     0
C3       C     0.6875       0.217948     0.666667     0
C4       C     0.71875      0.179487     0.666667     0
C1       C     0.6875       0.24359      0            0
C2       C     0.71875      0.282052     0            0
C3       C     0.6875       0.294872     0            0
C4       C     0.71875      0.25641      0            0
C1       C     0.6875       0.24359      0.333333     0
C2       C     0.71875      0.282052     0.333333     0
C3       C     0.6875       0.294872     0.333333     0
C4       C     0.71875      0.25641      0.333333     0
C1       C     0.6875       0.24359      0.666667     0
C2       C     0.71875      0.282052     0.666667     0
C3       C     0.6875       0.294872     0.666667     0
C4       C     0.71875      0.25641      0.666667     0
C1       C     0.6875       0.320513     0            0
C2       C     0.71875      0.358975     0            0
C3       C     0.6875       0.371795     0            0
C4       C     0.71875      0.333333     0            0
C1       C     0.6875       0.320513     0.333333     0
C2       C     0.71875      0.358975     0.333333     0
C3       C     0.6875       0.371795     0.333333     0
C4       C     0.71875      0.333333     0.333333     0
C1       C     0.6875       0.320513     0.666667     0
C2       C     0.71875      0.358975     0.666667     0
C3       C     0.6875       0.371795     0.666667     0
C4       C     0.71875      0.333333     0.666667     0
C1       C     0.6875       0.397436     0            0
C2       C     0.71875      0.435898     0            0
C3       C     0.6875       0.448718     0            0
C4       C     0.71875      0.410256     0            0
C1       C     0.6875       0.397436     0.333333     0
C2       C     0.71875      0.435898     0.333333     0
C3       C     0.6875       0.448718     0.333333     0
C4       C     0.71875      0.410256     0.333333     0
C1       C     0.6875       0.397436     0.666667     0
C2       C     0.71875      0.435898     0.666667     0
C3       C     0.6875       0.448718     0.666667     0
C4       C     0.71875      0.410256     0.666667     0
C1       C     0.6875       0.474359     0            0
C2       C     0.71875      0.512821     0            0
C3       C     0.6875       0.525641     0            0
C4       C     0.71875      0.487179     0            0
C1       C     0.6875       0.474359     0.333333     0
C2       C     0.71875      0.512821     0.333333     0
C3       C     0.6875       0.525641     0.333333     0
C4       C     0.71875      0.487179     0.333333     0
C1       C     0.6875       0.474359     0.666667     0
C2       C     0.71875      0.512821     0.666667     0
C3       C     0.6875       0.525641     0.666667     0
C4       C     0.71875      0.487179     0.666667     0
C1       C     0.6875       0.551282     0            0
C2       C     0.71875      0.589744     0            0
C3       C     0.6875       0.602564     0            0
C4       C     0.71875      0.564102     0            0
C1       C     0.6875       0.551282     0.333333     0
C2       C     0.71875      0.589744     0.333333     0
C3       C     0.6875       0.602564     0.333333     0
C4       C     0.71875      0.564102     0.333333     0
C1       C     0.6875       0.551282     0.666667     0
C2       C     0.71875      0.589744     0.666667     0
C3       C     0.6875       0.602564     0.666667     0
C4       C     0.71875      0.564102     0.666667     0
C1       C     0.6875       0.628205     0            0
C2       C     0.71875      0.666667     0            0
C3       C     0.6875       0.679487     0            0
C4       C     0.71875      0.641025     0            0
C1       C     0.6875       0.628205     0.333333     0
C2       C     0.71875      0.666667     0.333333     0
C3       C     0.6875       0.679487     0.333333     0
C4       C     0.71875      0.641025     0.333333     0
C1       C     0.6875       0.628205     0.666667     0
C2       C     0.71875      0.666667     0.666667     0
C3       C     0.6875       0.679487     0.666667     0
C4       C     0.71875      0.641025     0.666667     0
C1       C     0.6875       0.705128     0            0
C2       C     0.71875      0.74359      0            0
C3       C     0.6875       0.75641      0            0
C4       C     0.71875      0.717948     0            0
C1       C     0.6875       0.705128     0.333333     0
C2       C     0.71875      0.74359      0.333333     0
C3       C     0.6875       0.75641      0.333333     0
C4       C     0.71875      0.717948     0.333333     0
C1       C     0.6875       0.705128     0.666667     0
C2       C     0.71875      0.74359      0.666667     0
C3       C     0.6875       0.75641      0.666667     0
C4       C     0.71875      0.717948     0.666667     0
C1       C     0.6875       0.782052     0            0
C2       C     0.71875      0.820513     0            0
C3       C     0.6875       0.833333     0            0
C4       C     0.71875      0.794872     0            0
C1       C     0.6875       0.782052     0.333333     0
C2       C     0.71875      0.820513     0.333333     0
C3       C     0.6875       0.833333     0.333333     0
C4       C     0.71875      0.794872     0.333333     0
C1       C     0.6875       0.782052     0.666667     0
C2       C     0.71875      0.820513     0.666667     0
C3       C     0.6875       0.833333     0.666667     0
C4       C     0.71875      0.794872     0.666667     0
C1       C     0.6875       0.858975     0            0
C2       C     0.71875      0.897436     0            0
C3       C     0.6875       0.910256     0            0
C4       C     0.71875      0.871795     0            0
C1       C     0.6875       0.858975     0.333333     0
C2       C     0.71875      0.897436     0.333333     0
C3       C     0.6875       0.910256     0.333333     0
C4       C     0.71875      0.871795     0.333333     0
C1       C     0.6875       0.858975     0.666667     0
C2       C     0.71875      0.897436     0.666667     0
C3       C     0.6875       0.910256     0.666667     0
C4       C     0.71875      0.871795     0.666667     0
C1       C     0.6875       0.935898     0            0
C2       C     0.71875      0.974359     0            0
C3       C     0.6875       0.987179     0            0
C4       C     0.71875      0.948718     0            0
C1       C     0.6875       0.935898     0.333333     0
C2       C     0.71875      0.974359     0.333333     0
C3       C     0.6875       0.987179     0.333333     0
C4       C     0.71875      0.948718     0.333333     0
C1       C     0.6875       0.935898     0.666667     0
C2       C     0.71875      0.974359     0.666667     0
C3       C     0.6875       0.987179     0.666667     0
C4       C     0.71875      0.948718     0.666667     0
C1       C     0.75         0.0128208    0            0
C2       C     0.78125      0.0512823    0            0
C3       C     0.75         0.0641023    0            0
C4       C     0.78125      0.0256408    0            0
C1       C     0.75         0.0128208    0.333333     0
C2       C     0.78125      0.0512823    0.333333     0
C3       C     0.75         0.0641023    0.333333     0
C4       C     0.78125      0.0256408    0.333333     0
C1       C     0.75         0.0128208    0.666667     0
C2       C     0.78125      0.0512823    0.666667     0
C3       C     0.75         0.0641023    0.666667     0
C4       C     0.78125      0.0256408    0.666667     0
C1       C     0.75         0.0897438    0            0
C2       C     0.78125      0.128205     0            0
C3       C     0.75         0.141025     0            0
C4       C     0.78125      0.102564     0            0
C1       C     0.75         0.0897438    0.333333     0
C2       C     0.78125      0.128205     0.333333     0
C3       C     0.75         0.141025     0.333333     0
C4       C     0.78125      0.102564     0.333333     0
C1       C     0.75         0.0897438    0.666667     0
C2       C     0.78125      0.128205     0.666667     0
C3       C     0.75         0.141025     0.666667     0
C4       C     0.78125      0.102564     0.666667     0
C1       C     0.75         0.166667     0            0
C2       C     0.78125      0.205128     0            0
C3       C     0.75         0.217948     0            0
C4       C     0.78125      0.179487     0            0
C1       C     0.75         0.166667     0.333333     0
C2       C     0.78125      0.205128     0.333333     0
C3       C     0.75         0.217948     0.333333     0
C4       C     0.78125      0.179487     0.333333     0
C1       C     0.75         0.166667     0.666667     0
C2       C     0.78125      0.205128     0.666667     0
C3       C     0.75         0.217948     0.666667     0
C4       C     0.78125      0.179487     0.666667     0
C1       C     0.75         0.24359      0            0
C2       C     0.78125      0.282052     0            0
C3       C     0.75         0.294872     0            0
C4       C     0.78125      0.25641      0            0
C1       C     0.75         0.24359      0.333333     0
C2       C     0.78125      0.282052     0.333333     0
C3       C     0.75         0.294872     0.333333     0
C4       C     0.78125      0.25641      0.333333     0
C1       C     0.75         0.24359      0.666667     0
C2       C     0.78125      0.282052     0.666667     0
C3       C     0.75         0.294872     0.666667     0
C4       C     0.78125      0.25641      0.666667     0
C1       C     0.75         0.320513     0            0
C2       C     0.78125      0.358975     0            0
C3       C     0.75         0.371795     0            0
C4       C     0.78125      0.333333     0            0
C1       C     0.75         0.320513     0.333333     0
C2       C     0.78125      0.358975     0.333333     0
C3       C     0.75         0.371795     0.333333     0
C4       C     0.78125      0.333333     0.333333     0
C1       C     0.75         0.320513     0.666667     0
C2       C     0.78125      0.358975     0.666667     0
C3       C     0.75         0.371795     0.666667     0
C4       C     0.78125      0.333333     0.666667     0
C1       C     0.75         0.397436     0            0
C2       C     0.78125      0.435898     0            0
C3       C     0.75         0.448718     0            0
C4       C     0.78125      0.410256     0            0
C1       C     0.75         0.397436     0.333333     0
C2       C     0.78125      0.435898     0.333333     0
C3       C     0.75         0.448718     0.333333     0
C4       C     0.78125      0.410256     0.333333     0
C1       C     0.75         0.397436     0.666667     0
C2       C     0.78125      0.435898     0.666667     0
C3       C     0.75         0.448718     0.666667     0
C4       C     0.78125      0.410256     0.666667     0
C1       C     0.75         0.474359     0            0
C2       C     0.78125      0.512821     0            0
C3       C     0.75         0.525641     0            0
C4       C     0.78125      0.487179     0            0
C1       C     0.75         0.474359     0.333333     0
C2       C     0.78125      0.512821     0.333333     0
C3       C     0.75         0.525641     0.333333     0
C4       C     0.78125      0.487179     0.333333     0
C1       C     0.75         0.474359     0.666667     0
C2       C     0.78125      0.512821     0.666667     0
C3       C     0.75         0.525641     0.666667     0
C4       C     0.78125      0.487179     0.666667     0
C1       C     0.75         0.551282     0            0
C2       C     0.78125      0.589744     0            0
C3       C     0.75         0.602564     0            0
C4       C     0.78125      0.564102     0            0
C1       C     0.75         0.551282     0.333333     0
C2       C     0.78125      0.589744     0.333333     0
C3       C     0.75         0.602564     0.333333     0
C4       C     0.78125      0.564102     0.333333     0
C1       C     0.75         0.551282     0.666667     0
C2       C     0.78125      0.589744     0.666667     0
C3       C     0.75         0.602564     0.666667     0
C4       C     0.78125      0.564102     0.666667     0
C1       C     0.75         0.628205     0            0
C2       C     0.78125      0.666667     0            0
C3       C     0.75         0.679487     0            0
C4       C     0.78125      0.641025     0            0
C1       C     0.75         0.628205     0.333333     0
C2       C     0.78125      0.666667     0.333333     0
C3       C     0.75         0.679487     0.333333     0
C4       C     0.78125      0.641025     0.333333     0
C1       C     0.75         0.628205     0.666667     0
C2       C     0.78125      0.666667     0.666667     0
C3       C     0.75         0.679487     0.666667     0
C4       C     0.78125      0.641025     0.666667     0
C1       C     0.75         0.705128     0            0
C2       C     0.78125      0.74359      0            0
C3       C     0.75         0.75641      0            0
C4       C     0.78125      0.717948     0            0
C1       C     0.75         0.705128     0.333333     0
C2       C     0.78125      0.74359      0.333333     0
C3       C     0.75         0.75641      0.333333     0
C4       C     0.78125      0.717948     0.333333     0
C1       C     0.75         0.705128     0.666667     0
C2       C     0.78125      0.74359      0.666667     0
C3       C     0.75         0.75641      0.666667     0
C4       C     0.78125      0.717948     0.666667     0
C1       C     0.75         0.782052     0            0
C2       C     0.78125      0.820513     0            0
C3       C     0.75         0.833333     0            0
C4       C     0.78125      0.794872     0            0
C1       C     0.75         0.782052     0.333333     0
C2       C     0.78125      0.820513     0.333333     0
C3       C     0.75         0.833333     0.333333     0
C4       C     0.78125      0.794872     0.333333     0
C1       C     0.75         0.782052     0.666667     0
C2       C     0.78125      0.820513     0.666667     0
C3       C     0.75         0.833333     0.666667     0
C4       C     0.78125      0.794872     0.666667     0
C1       C     0.75         0.858975     0            0
C2       C     0.78125      0.897436     0            0
C3       C     0.75         0.910256     0            0
C4       C     0.78125      0.871795     0            0
C1       C     0.75         0.858975     0.333333     0
C2       C     0.78125      0.897436     0.333333     0
C3       C     0.75         0.910256     0.333333     0
C4       C     0.78125      0.871795     0.333333     0
C1       C     0.75         0.858975     0.666667     0
C2       C     0.78125      0.897436     0.666667     0
C3       C     0.75         0.910256     0.666667     0
C4       C     0.78125      0.871795     0.666667     0
C1       C     0.75         0.935898     0            0
C2       C     0.78125      0.974359     0            0
C3       C     0.75         0.987179     0            0
C4       C     0.78125      0.948718     0            0
C1       C     0.75         0.935898     0.333333     0
C2       C     0.78125      0.974359     0.333333     0
C3       C     0.75         0.987179     0.333333     0
C4       C     0.78125      0.948718     0.333333     0
C1       C     0.75         0.935898     0.666667     0
C2       C     0.78125      0.974359     0.666667     0
C3       C     0.75         0.987179     0.666667     0
C4       C     0.78125      0.948718     0.666667     0
C1       C     0.8125       0.0128208    0            0
C2       C     0.84375      0.0512823    0            0
C3       C     0.8125       0.0641023    0            0
C4       C     0.84375      0.0256408    0            0
C1       C     0.8125       0.0128208    0.333333     0
C2       C     0.84375      0.0512823    0.333333     0
C3       C     0.8125       0.0641023    0.333333     0
C4       C     0.84375      0.0256408    0.333333     0
C1       C     0.8125       0.0128208    0.666667     0
C2       C     0.84375      0.0512823    0.666667     0
C3       C     0.8125       0.0641023    0.666667     0
C4       C     0.84375      0.0256408    0.666667     0
C1       C     0.8125       0.0897438    0            0
C2       C     0.84375      0.128205     0            0
C3       C     0.8125       0.141025     0            0
C4       C     0.84375      0.102564     0            0
C1       C     0.8125       0.0897438    0.333333     0
C2       C     0.84375      0.128205     0.333333     0
C3       C     0.8125       0.141025     0.333333     0
C4       C     0.84375      0.102564     0.333333     0
C1       C     0.8125       0.0897438    0.666667     0
C2       C     0.84375      0.128205     0.666667     0
C3       C     0.8125       0.141025     0.666667     0
C4       C     0.84375      0.102564     0.666667     0
C1       C     0.8125       0.166667     0            0
C2       C     0.84375      0.205128     0            0
C3       C     0.8125       0.217948     0            0
C4       C     0.84375      0.179487     0            0
C1       C     0.8125       0.166667     0.333333     0
C2       C     0.84375      0.205128     0.333333     0
C3       C     0.8125       0.217948     0.333333     0
C4       C     0.84375      0.179487     0.333333     0
C1       C     0.8125       0.166667     0.666667     0
C2       C     0.84375      0.205128     0.666667     0
C3       C     0.8125       0.217948     0.666667     0
C4       C     0.84375      0.179487     0.666667     0
C1       C     0.8125       0.24359      0            0
C2       C     0.84375      0.282052     0            0
C3       C     0.8125       0.294872     0            0
C4       C     0.84375      0.25641      0            0
C1       C     0.8125       0.24359      0.333333     0
C2       C     0.84375      0.282052     0.333333     0
C3       C     0.8125       0.294872     0.333333     0
C4       C     0.84375      0.25641      0.333333     0
C1       C     0.8125       0.24359      0.666667     0
C2       C     0.84375      0.282052     0.666667     0
C3       C     0.8125       0.294872     0.666667     0
C4       C     0.84375      0.25641      0.666667     0
C1       C     0.8125       0.320513     0            0
C2       C     0.84375      0.358975     0            0
C3       C     0.8125       0.371795     0            0
C4       C     0.84375      0.333333     0            0
C1       C     0.8125       0.320513     0.333333     0
C2       C     0.84375      0.358975     0.333333     0
C3       C     0.8125       0.371795     0.333333     0
C4       C     0.84375      0.333333     0.333333     0
C1       C     0.8125       0.320513     0.666667     0
C2       C     0.84375      0.358975     0.666667     0
C3       C     0.8125       0.371795     0.666667     0
C4       C     0.84375      0.333333     0.666667     0
C1       C     0.8125       0.397436     0            0
C2       C     0.84375      0.435898     0            0
C3       C     0.8125       0.448718     0            0
C4       C     0.84375      0.410256     0            0
C1       C     0.8125       0.397436     0.333333     0
C2       C     0.84375      0.435898     0.333333     0
C3       C     0.8125       0.448718     0.333333     0
C4       C     0.84375      0.410256     0.333333     0
C1       C     0.8125       0.397436     0.666667     0
C2       C     0.84375      0.435898     0.666667     0
C3       C     0.8125       0.448718     0.666667     0
C4       C     0.84375      0.410256     0.666667     0
C1       C     0.8125       0.474359     0            0
C2       C     0.84375      0.512821     0            0
C3       C     0.8125       0.525641     0            0
C4       C     0.84375      0.487179     0            0
C1       C     0.8125       0.474359     0.333333     0
C2       C     0.84375      0.512821     0.333333     0
C3       C     0.8125       0.525641     0.333333     0
C4       C     0.84375      0.487179     0.333333     0
C1       C     0.8125       0.474359     0.666667     0
C2       C     0.84375      0.512821     0.666667     0
C3       C     0.8125       0.525641     0.666667     0
C4       C     0.84375      0.487179     0.666667     0
C1       C     0.8125       0.551282     0            0
C2       C     0.84375      0.589744     0            0
C3       C     0.8125       0.602564     0            0
C4       C     0.84375      0.564102     0            0
C1       C     0.8125       0.551282     0.333333     0
C2       C     0.84375      0.589744     0.333333     0
C3       C     0.8125       0.602564     0.333333     0
C4       C     0.84375      0.564102     0.333333     0
C1       C     0.8125       0.551282     0.666667     0
C2       C     0.84375      0.589744     0.666667     0
C3       C     0.8125       0.602564     0.666667     0
C4       C     0.84375      0.564102     0.666667     0
C1       C     0.8125       0.628205     0            0
C2       C     0.84375      0.666667     0            0
C3       C     0.8125       0.679487     0            0
C4       C     0.84375      0.641025     0            0
C1       C     0.8125       0.628205     0.333333     0
C2       C     0.84375      0.666667     0.333333     0
C3       C     0.8125       0.679487     0.333333     0
C4       C     0.84375      0.641025     0.333333     0
C1       C     0.8125       0.628205     0.666667     0
C2       C     0.84375      0.666667     0.666667     0
C3       C     0.8125       0.679487     0.666667     0
C4       C     0.84375      0.641025     0.666667     0
C1       C     0.8125       0.705128     0            0
C2       C     0.84375      0.74359      0            0
C3       C     0.8125       0.75641      0            0
C4       C     0.84375      0.717948     0            0
C1       C     0.8125       0.705128     0.333333     0
C2       C     0.84375      0.74359      0.333333     0
C3       C     0.8125       0.75641      0.333333     0
C4       C     0.84375      0.717948     0.333333     0
C1       C     0.8125       0.705128     0.666667     0
C2       C     0.84375      0.74359      0.666667     0
C3       C     0.8125       0.75641      0.666667     0
C4       C     0.84375      0.717948     0.666667     0
C1       C     0.8125       0.782052     0            0
C2       C     0.84375      0.820513     0            0
C3       C     0.8125       0.833333     0            0
C4       C     0.84375      0.794872     0            0
C1       C     0.8125       0.782052     0.333333     0
C2       C     0.84375      0.820513     0.333333     0
C3       C     0.8125       0.833333     0.333333     0
C4       C     0.84375      0.794872     0.333333     0
C1       C     0.8125       0.782052     0.666667     0
C2       C     0.84375      0.820513     0.666667     0
C3       C     0.8125       0.833333     0.666667     0
C4       C     0.84375      0.794872     0.666667     0
C1       C     0.8125       0.858975     0            0
C2       C     0.84375      0.897436     0            0
C3       C     0.8125       0.910256     0            0
C4       C     0.84375      0.871795     0            0
C1       C     0.8125       0.858975     0.333333     0
C2       C     0.84375      0.897436     0.333333     0
C3       C     0.8125       0.910256     0.333333     0
C4       C     0.84375      0.871795     0.333333     0
C1       C     0.8125       0.858975     0.666667     0
C2       C     0.84375      0.897436     0.666667     0
C3       C     0.8125       0.910256     0.666667     0
C4       C     0.84375      0.871795     0.666667     0
C1       C     0.8125       0.935898     0            0
C2       C     0.84375      0.974359     0            0
C3       C     0.8125       0.987179     0            0
C4       C     0.84375      0.948718     0            0
C1       C     0.8125       0.935898     0.333333     0
C2       C     0.84375      0.974359     0.333333     0
C3       C     0.8125       0.987179     0.333333     0
C4       C     0.84375      0.948718     0.333333     0
C1       C     0.8125       0.935898     0.666667     0
C2       C     0.84375      0.974359     0.666667     0
C3       C     0.8125       0.987179     0.666667     0
C4       C     0.84375      0.948718     0.666667     0
C1       C     0.875        0.0128208    0            0
C2       C     0.90625      0.0512823    0            0
C3       C     0.875        0.0641023    0            0
C4       C     0.90625      0.0256408    0            0
C1       C     0.875        0.0128208    0.333333     0
C2       C     0.90625      0.0512823    0.333333     0
C3       C     0.875        0.0641023    0.333333     0
C4       C     0.90625      0.0256408    0.333333     0
C1       C     0.875        0.0128208    0.666667     0
C2       C     0.90625      0.0512823    0.666667     0
C3       C     0.875        0.0641023    0.666667     0
C4       C     0.90625      0.0256408    0.666667     0
C1       C     0.875        0.0897438    0            0
C2       C     0.90625      0.128205     0            0
C3       C     0.875        0.141025     0            0
C4       C     0.90625      0.102564     0            0
C1       C     0.875        0.0897438    0.333333     0
C2       C     0.90625      0.128205     0.333333     0
C3       C     0.875        0.141025     0.333333     0
C4       C     0.90625      0.102564     0.333333     0
C1       C     0.875        0.0897438    0.666667     0
C2       C     0.90625      0.128205     0.666667     0
C3       C     0.875        0.141025     0.666667     0
C4       C     0.90625      0.102564     0.666667     0
C1       C     0.875        0.166667     0            0
C2       C     0.90625      0.205128     0            0
C3       C     0.875        0.217948     0            0
C4       C     0.90625      0.179487     0            0
C1       C     0.875        0.166667     0.333333     0
C2       C     0.90625      0.205128     0.333333     0
C3       C     0.875        0.217948     0.333333     0
C4       C     0.90625      0.179487     0.333333     0
C1       C     0.875        0.166667     0.666667     0
C2       C     0.90625      0.205128     0.666667     0
C3       C     0.875        0.217948     0.666667     0
C4       C     0.90625      0.179487     0.666667     0
C1       C     0.875        0.24359      0            0
C2       C     0.90625      0.282052     0            0
C3       C     0.875        0.294872     0            0
C4       C     0.90625      0.25641      0            0
C1       C     0.875        0.24359      0.333333     0
C2       C     0.90625      0.282052     0.333333     0
C3       C     0.875        0.294872     0.333333     0
C4       C     0.90625      0.25641      0.333333     0
C1       C     0.875        0.24359      0.666667     0
C2       C     0.90625      0.282052     0.666667     0
C3       C     0.875        0.294872     0.666667     0
C4       C     0.90625      0.25641      0.666667     0
C1       C     0.875        0.320513     0            0
C2       C     0.90625      0.358975     0            0
C3       C     0.875        0.371795     0            0
C4       C     0.90625      0.333333     0            0
C1       C     0.875        0.320513     0.333333     0
C2       C     0.90625      0.358975     0.333333     0
C3       C     0.875        0.371795     0.333333     0
C4       C     0.90625      0.333333     0.333333     0
C1       C     0.875        0.320513     0.666667     0
C2       C     0.90625      0.358975     0.666667     0
C3       C     0.875        0.371795     0.666667     0
C4       C     0.90625      0.333333     0.666667     0
C1       C     0.875        0.397436     0            0
C2       C     0.90625      0.435898     0            0
C3       C     0.875        0.448718     0            0
C4       C     0.90625      0.410256     0            0
C1       C     0.875        0.397436     0.333333     0
C2       C     0.90625      0.435898     0.333333     0
C3       C     0.875        0.448718     0.333333     0
C4       C     0.90625      0.410256     0.333333     0
C1       C     0.875        0.397436     0.666667     0
C2       C     0.90625      0.435898     0.666667     0
C3       C     0.875        0.448718     0.666667     0
C4       C     0.90625      0.410256     0.666667     0
C1       C     0.875        0.474359     0            0
C2       C     0.90625      0.512821     0            0
C3       C     0.875        0.525641     0            0
C4       C     0.90625      0.487179     0            0
C1       C     0.875        0.474359     0.333333     0
C2       C     0.90625      0.512821     0.333333     0
C3       C     0.875        0.525641     0.333333     0
C4       C     0.90625      0.487179     0.333333     0
C1       C     0.875        0.474359     0.666667     0
C2       C     0.90625      0.512821     0.666667     0
C3       C     0.875        0.525641     0.666667     0
C4       C     0.90625      0.487179     0.666667     0
C1       C     0.875        0.551282     0            0
C2       C     0.90625      0.589744     0            0
C3       C     0.875        0.602564     0            0
C4       C     0.90625      0.564102     0            0
C1       C     0.875        0.551282     0.333333     0
C2       C     0.90625      0.589744     0.333333     0
C3       C     0.875        0.602564     0.333333     0
C4       C     0.90625      0.564102     0.333333     0
C1       C     0.875        0.551282     0.666667     0
C2       C     0.90625      0.589744     0.666667     0
C3       C     0.875        0.602564     0.666667     0
C4       C     0.90625      0.564102     0.666667     0
C1       C     0.875        0.628205     0            0
C2       C     0.90625      0.666667     0            0
C3       C     0.875        0.679487     0            0
C4       C     0.90625      0.641025     0            0
C1       C     0.875        0.628205     0.333333     0
C2       C     0.90625      0.666667     0.333333     0
C3       C     0.875        0.679487     0.333333     0
C4       C     0.90625      0.641025     0.333333     0
C1       C     0.875        0.628205     0.666667     0
C2       C     0.90625      0.666667     0.666667     0
C3       C     0.875        0.679487     0.666667     0
C4       C     0.90625      0.641025     0.666667     0
C1       C     0.875        0.705128     0            0
C2       C     0.90625      0.74359      0            0
C3       C     0.875        0.75641      0            0
C4       C     0.90625      0.717948     0            0
C1       C     0.875        0.705128     0.333333     0
C2       C     0.90625      0.74359      0.333333     0
C3       C     0.875        0.75641      0.333333     0
C4       C     0.90625      0.717948     0.333333     0
C1       C     0.875        0.705128     0.666667     0
C2       C     0.90625      0.74359      0.666667     0
C3       C     0.875        0.75641      0.666667     0
C4       C     0.90625      0.717948     0.666667     0
C1       C     0.875        0.782052     0            0
C2       C     0.90625      0.820513     0            0
C3       C     0.875        0.833333     0            0
C4       C     0.90625      0.794872     0            0
C1       C     0.875        0.782052     0.333333     0
C2       C     0.90625      0.820513     0.333333     0
C3       C     0.875        0.833333     0.333333     0
C4       C     0.90625      0.794872     0.333333     0
C1       C     0.875        0.782052     0.666667     0
C2       C     0.90625      0.820513     0.666667     0
C3       C     0.875        0.833333     0.666667     0
C4       C     0.90625      0.794872     0.666667     0
C1       C     0.875        0.858975     0            0
C2       C     0.90625      0.897436     0            0
C3       C     0.875        0.910256     0            0
C4       C     0.90625      0.871795     0            0
C1       C     0.875        0.858975     0.333333     0
C2       C     0.90625      0.897436     0.333333     0
C3       C     0.875        0.910256     0.333333     0
C4       C     0.90625      0.871795     0.333333     0
C1       C     0.875        0.858975     0.666667     0
C2       C     0.90625      0.897436     0.666667     0
C3       C     0.875        0.910256     0.666667     0
C4       C     0.90625      0.871795     0.666667     0
C1       C     0.875        0.935898     0            0
C2       C     0.90625      0.974359     0            0
C3       C     0.875        0.987179     0            0
C4       C     0.90625      0.948718     0            0
C1       C     0.875        0.935898     0.333333     0
C2       C     0.90625      0.974359     0.333333     0
C3       C     0.875        0.987179     0.333333     0
C4       C     0.90625      0.948718     0.333333     0
C1       C     0.875        0.935898     0.666667     0
C2       C     0.90625      0.974359     0.666667     0
C3       C     0.875        0.987179     0.666667     0
C4       C     0.90625      0.948718     0.666667     0
C1       C     0.9375       0.0128208    0            0
C2       C     0.96875      0.0512823    0            0
C3       C     0.9375       0.0641023    0            0
C4       C     0.96875      0.0256408    0            0
C1       C     0.9375       0.0128208    0.333333     0
C2       C     0.96875      0.0512823    0.333333     0
C3       C     0.9375       0.0641023    0.333333     0
C4       C     0.96875      0.0256408    0.333333     0
C1       C     0.9375       0.0128208    0.666667     0
C2       C     0.96875      0.0512823    0.666667     0
C3       C     0.9375       0.0641023    0.666667     0
C4       C     0.96875      0.0256408    0.666667     0
C1       C     0.9375       0.0897438    0            0
C2       C     0.96875      0.128205     0            0
C3       C     0.9375       0.141025     0            0
C4       C     0.96875      0.102564     0            0
C1       C     0.9375       0.0897438    0.333333     0
C2       C     0.96875      0.128205     0.333333     0
C3       C     0.9375       0.141025     0.333333     0
C4       C     0.96875      0.102564     0.333333     0
C1       C     0.9375       0.0897438    0.666667     0
C2       C     0.96875      0.128205     0.666667     0
C3       C     0.9375       0.141025     0.666667     0
C4       C     0.96875      0.102564     0.666667     0
C1       C     0.9375       0.166667     0            0
C2       C     0.96875      0.205128     0            0
C3       C     0.9375       0.217948     0            0
C4       C     0.96875      0.179487     0            0
C1       C     0.9375       0.166667     0.333333     0
C2       C     0.96875      0.205128     0.333333     0
C3       C     0.9375       0.217948     0.333333     0
C4       C     0.96875      0.179487     0.333333     0
C1       C     0.9375       0.166667     0.666667     0
C2       C     0.96875      0.205128     0.666667     0
C3       C     0.9375       0.217948     0.666667     0
C4       C     0.96875      0.179487     0.666667     0
C1       C     0.9375       0.24359      0            0
C2       C     0.96875      0.282052     0            0
C3       C     0.9375       0.294872     0            0
C4       C     0.96875      0.25641      0            0
C1       C     0.9375       0.24359      0.333333     0
C2       C     0.96875      0.282052     0.333333     0
C3       C     0.9375       0.294872     0.333333     0
C4       C     0.96875      0.25641      0.333333     0
C1       C     0.9375       0.24359      0.666667     0
C2       C     0.96875      0.282052     0.666667     0
C3       C     0.9375       0.294872     0.666667     0
C4       C     0.96875      0.25641      0.666667     0
C1       C     0.9375       0.320513     0            0
C2       C     0.96875      0.358975     0            0
C3       C     0.9375       0.371795     0            0
C4       C     0.96875      0.333333     0            0
C1       C     0.9375       0.320513     0.333333     0
C2       C     0.96875      0.358975     0.333333     0
C3       C     0.9375       0.371795     0.333333     0
C4       C     0.96875      0.333333     0.333333     0
C1       C     0.9375       0.320513     0.666667     0
C2       C     0.96875      0.358975     0.666667     0
C3       C     0.9375       0.371795     0.666667     0
C4       C     0.96875      0.333333     0.666667     0
C1       C     0.9375       0.397436     0            0
C2       C     0.96875      0.435898     0            0
C3       C     0.9375       0.448718     0            0
C4       C     0.96875      0.410256     0            0
C1       C     0.9375       0.397436     0.333333     0
C2       C     0.96875      0.435898     0.333333     0
C3       C     0.9375       0.448718     0.333333     0
C4       C     0.96875      0.410256     0.333333     0
C1       C     0.9375       0.397436     0.666667     0
C2       C     0.96875      0.435898     0.666667     0
C3       C     0.9375       0.448718     0.666667     0
C4       C     0.96875      0.410256     0.666667     0
C1       C     0.9375       0.474359     0            0
C2       C     0.96875      0.512821     0            0
C3       C     0.9375       0.525641     0            0
C4       C     0.96875      0.487179     0            0
C1       C     0.9375       0.474359     0.333333     0
C2       C     0.96875      0.512821     0.333333     0
C3       C     0.9375       0.525641     0.333333     0
C4       C     0.96875      0.487179     0.333333     0
C1       C     0.9375       0.474359     0.666667     0
C2       C     0.96875      0.512821     0.666667     0
C3       C     0.9375       0.525641     0.666667     0
C4       C     0.96875      0.487179     0.666667     0
C1       C     0.9375       0.551282     0            0
C2       C     0.96875      0.589744     0            0
C3       C     0.9375       0.602564     0            0
C4       C     0.96875      0.564102     0            0
C1       C     0.9375       0.551282     0.333333     0
C2       C     0.96875      0.589744     0.333333     0
C3       C     0.9375       0.602564     0.333333     0
C4       C     0.96875      0.564102     0.333333     0
C1       C     0.9375       0.551282     0.666667     0
C2       C     0.96875      0.589744     0.666667     0
C3       C     0.9375       0.602564     0.666667     0
C4       C     0.96875      0.564102     0.666667     0
C1       C     0.9375       0.628205     0            0
C2       C     0.96875      0.666667     0            0
C3       C     0.9375       0.679487     0            0
C4       C     0.96875      0.641025     0            0
C1       C     0.9375       0.628205     0.333333     0
C2       C     0.96875      0.666667     0.333333     0
C3       C     0.9375       0.679487     0.333333     0
C4       C     0.96875      0.641025     0.333333     0
C1       C     0.9375       0.628205     0.666667     0
C2       C     0.96875      0.666667     0.666667     0
C3       C     0.9375       0.679487     0.666667     0
C4       C     0.96875      0.641025     0.666667     0
C1       C     0.9375       0.705128     0            0
C2       C     0.96875      0.74359      0            0
C3       C     0.9375       0.75641      0            0
C4       C     0.96875      0.717948     0            0
C1       C     0.9375       0.705128     0.333333     0
C2       C     0.96875      0.74359      0.333333     0
C3       C     0.9375       0.75641      0.333333     0
C4       C     0.96875      0.717948     0.333333     0
C1       C     0.9375       0.705128     0.666667     0
C2       C     0.96875      0.74359      0.666667     0
C3       C     0.9375       0.75641      0.666667     0
C4       C     0.96875      0.717948     0.666667     0
C1       C     0.9375       0.782052     0            0
C2       C     0.96875      0.820513     0            0
C3       C     0.9375       0.833333     0            0
C4       C     0.96875      0.794872     0            0
C1       C     0.9375       0.782052     0.333333     0
C2       C     0.96875      0.820513     0.333333     0
C3       C     0.9375       0.833333     0.333333     0
C4       C     0.96875      0.794872     0.333333     0
C1       C     0.9375       0.782052     0.666667     0
C2       C     0.96875      0.820513     0.666667     0
C3       C     0.9375       0.833333     0.666667     0
C4       C     0.96875      0.794872     0.666667     0
C1       C     0.9375       0.858975     0            0
C2       C     0.96875      0.897436     0            0
C3       C     0.9375       0.910256     0            0
C4       C     0.96875      0.871795     0            0
C1       C     0.9375       0.858975     0.333333     0
C2       C     0.96875      0.897436     0.333333     0
C3       C     0.9375       0.910256     0.333333     0
C4       C     0.96875      0.871795     0.333333     0
C1       C     0.9375       0.858975     0.666667     0
C2       C     0.96875      0.897436     0.666667     0
C3       C     0.9375       0.910256     0.666667     0
C4       C     0.96875      0.871795     0.666667     0
C1       C     0.9375       0.935898     0            0
C2       C     0.96875      0.974359     0            0
C3       C     0.9375       0.987179     0            0
C4       C     0.96875      0.948718     0            0
C1       C     0.9375       0.935898     0.333333     0
C2       C     0.96875      0.974359     0.333333     0
C3       C     0.9375       0.987179     0.333333     0
C4       C     0.96875      0.948718     0.333333     0
C1       C     0.9375       0.935898     0.666667     0
C2       C     0.96875      0.974359     0.666667     0
C3       C     0.9375       0.987179     0.666667     0
C4       C     0.96875      0.948718     0.666667     0


