data_graphite_ortho

_audit_creation_method RASPA-1.0
_audit_creation_date 2012-1-21
_audit_author_name 'David Dubbeldam'

_cell_length_a    39.36
_cell_length_b    46.86
_cell_length_c    46.86
_cell_angle_alpha 90
_cell_angle_beta  90
_cell_angle_gamma 90
_cell_volume      86429

_symmetry_cell_setting          triclinic
_symmetry_space_group_name_Hall 'P 1'
_symmetry_space_group_name_H-M  'P 1'
_symmetry_Int_Tables_number     1

_symmetry_equiv_pos_as_xyz 'x,y,z'

loop_
_atom_site_label
_atom_site_type_symbol
_atom_site_fract_x
_atom_site_fract_y
_atom_site_fract_z
_atom_site_charge
C1       C     0            0.0151518    0            0
C2       C     0.03125      0.0606064    0            0
C3       C     0            0.0757573    0            0
C4       C     0.03125      0.0303027    0            0
C1       C     0            0.0151518    0.333333     0
C2       C     0.03125      0.0606064    0.333333     0
C3       C     0            0.0757573    0.333333     0
C4       C     0.03125      0.0303027    0.333333     0
C1       C     0            0.0151518    0.666667     0
C2       C     0.03125      0.0606064    0.666667     0
C3       C     0            0.0757573    0.666667     0
C4       C     0.03125      0.0303027    0.666667     0
C1       C     0            0.106061     0            0
C2       C     0.03125      0.151515     0            0
C3       C     0            0.166666     0            0
C4       C     0.03125      0.121212     0            0
C1       C     0            0.106061     0.333333     0
C2       C     0.03125      0.151515     0.333333     0
C3       C     0            0.166666     0.333333     0
C4       C     0.03125      0.121212     0.333333     0
C1       C     0            0.106061     0.666667     0
C2       C     0.03125      0.151515     0.666667     0
C3       C     0            0.166666     0.666667     0
C4       C     0.03125      0.121212     0.666667     0
C1       C     0            0.19697      0            0
C2       C     0.03125      0.242425     0            0
C3       C     0            0.257575     0            0
C4       C     0.03125      0.212121     0            0
C1       C     0            0.19697      0.333333     0
C2       C     0.03125      0.242425     0.333333     0
C3       C     0            0.257575     0.333333     0
C4       C     0.03125      0.212121     0.333333     0
C1       C     0            0.19697      0.666667     0
C2       C     0.03125      0.242425     0.666667     0
C3       C     0            0.257575     0.666667     0
C4       C     0.03125      0.212121     0.666667     0
C1       C     0            0.287879     0            0
C2       C     0.03125      0.333334     0            0
C3       C     0            0.348485     0            0
C4       C     0.03125      0.30303      0            0
C1       C     0            0.287879     0.333333     0
C2       C     0.03125      0.333334     0.333333     0
C3       C     0            0.348485     0.333333     0
C4       C     0.03125      0.30303      0.333333     0
C1       C     0            0.287879     0.666667     0
C2       C     0.03125      0.333334     0.666667     0
C3       C     0            0.348485     0.666667     0
C4       C     0.03125      0.30303      0.666667     0
C1       C     0            0.378788     0            0
C2       C     0.03125      0.424243     0            0
C3       C     0            0.439394     0            0
C4       C     0.03125      0.393939     0            0
C1       C     0            0.378788     0.333333     0
C2       C     0.03125      0.424243     0.333333     0
C3       C     0            0.439394     0.333333     0
C4       C     0.03125      0.393939     0.333333     0
C1       C     0            0.378788     0.666667     0
C2       C     0.03125      0.424243     0.666667     0
C3       C     0            0.439394     0.666667     0
C4       C     0.03125      0.393939     0.666667     0
C1       C     0            0.469697     0            0
C2       C     0.03125      0.515152     0            0
C3       C     0            0.530303     0            0
C4       C     0.03125      0.484848     0            0
C1       C     0            0.469697     0.333333     0
C2       C     0.03125      0.515152     0.333333     0
C3       C     0            0.530303     0.333333     0
C4       C     0.03125      0.484848     0.333333     0
C1       C     0            0.469697     0.666667     0
C2       C     0.03125      0.515152     0.666667     0
C3       C     0            0.530303     0.666667     0
C4       C     0.03125      0.484848     0.666667     0
C1       C     0            0.560606     0            0
C2       C     0.03125      0.606061     0            0
C3       C     0            0.621212     0            0
C4       C     0.03125      0.575757     0            0
C1       C     0            0.560606     0.333333     0
C2       C     0.03125      0.606061     0.333333     0
C3       C     0            0.621212     0.333333     0
C4       C     0.03125      0.575757     0.333333     0
C1       C     0            0.560606     0.666667     0
C2       C     0.03125      0.606061     0.666667     0
C3       C     0            0.621212     0.666667     0
C4       C     0.03125      0.575757     0.666667     0
C1       C     0            0.651515     0            0
C2       C     0.03125      0.69697      0            0
C3       C     0            0.712121     0            0
C4       C     0.03125      0.666666     0            0
C1       C     0            0.651515     0.333333     0
C2       C     0.03125      0.69697      0.333333     0
C3       C     0            0.712121     0.333333     0
C4       C     0.03125      0.666666     0.333333     0
C1       C     0            0.651515     0.666667     0
C2       C     0.03125      0.69697      0.666667     0
C3       C     0            0.712121     0.666667     0
C4       C     0.03125      0.666666     0.666667     0
C1       C     0            0.742425     0            0
C2       C     0.03125      0.787879     0            0
C3       C     0            0.80303      0            0
C4       C     0.03125      0.757575     0            0
C1       C     0            0.742425     0.333333     0
C2       C     0.03125      0.787879     0.333333     0
C3       C     0            0.80303      0.333333     0
C4       C     0.03125      0.757575     0.333333     0
C1       C     0            0.742425     0.666667     0
C2       C     0.03125      0.787879     0.666667     0
C3       C     0            0.80303      0.666667     0
C4       C     0.03125      0.757575     0.666667     0
C1       C     0            0.833334     0            0
C2       C     0.03125      0.878788     0            0
C3       C     0            0.893939     0            0
C4       C     0.03125      0.848485     0            0
C1       C     0            0.833334     0.333333     0
C2       C     0.03125      0.878788     0.333333     0
C3       C     0            0.893939     0.333333     0
C4       C     0.03125      0.848485     0.333333     0
C1       C     0            0.833334     0.666667     0
C2       C     0.03125      0.878788     0.666667     0
C3       C     0            0.893939     0.666667     0
C4       C     0.03125      0.848485     0.666667     0
C1       C     0            0.924243     0            0
C2       C     0.03125      0.969697     0            0
C3       C     0            0.984848     0            0
C4       C     0.03125      0.939394     0            0
C1       C     0            0.924243     0.333333     0
C2       C     0.03125      0.969697     0.333333     0
C3       C     0            0.984848     0.333333     0
C4       C     0.03125      0.939394     0.333333     0
C1       C     0            0.924243     0.666667     0
C2       C     0.03125      0.969697     0.666667     0
C3       C     0            0.984848     0.666667     0
C4       C     0.03125      0.939394     0.666667     0
C1       C     0.0625       0.0151518    0            0
C2       C     0.09375      0.0606064    0            0
C3       C     0.0625       0.0757573    0            0
C4       C     0.09375      0.0303027    0            0
C1       C     0.0625       0.0151518    0.333333     0
C2       C     0.09375      0.0606064    0.333333     0
C3       C     0.0625       0.0757573    0.333333     0
C4       C     0.09375      0.0303027    0.333333     0
C1       C     0.0625       0.0151518    0.666667     0
C2       C     0.09375      0.0606064    0.666667     0
C3       C     0.0625       0.0757573    0.666667     0
C4       C     0.09375      0.0303027    0.666667     0
C1       C     0.0625       0.106061     0            0
C2       C     0.09375      0.151515     0            0
C3       C     0.0625       0.166666     0            0
C4       C     0.09375      0.121212     0            0
C1       C     0.0625       0.106061     0.333333     0
C2       C     0.09375      0.151515     0.333333     0
C3       C     0.0625       0.166666     0.333333     0
C4       C     0.09375      0.121212     0.333333     0
C1       C     0.0625       0.106061     0.666667     0
C2       C     0.09375      0.151515     0.666667     0
C3       C     0.0625       0.166666     0.666667     0
C4       C     0.09375      0.121212     0.666667     0
C1       C     0.0625       0.19697      0            0
C2       C     0.09375      0.242425     0            0
C3       C     0.0625       0.257575     0            0
C4       C     0.09375      0.212121     0            0
C1       C     0.0625       0.19697      0.333333     0
C2       C     0.09375      0.242425     0.333333     0
C3       C     0.0625       0.257575     0.333333     0
C4       C     0.09375      0.212121     0.333333     0
C1       C     0.0625       0.19697      0.666667     0
C2       C     0.09375      0.242425     0.666667     0
C3       C     0.0625       0.257575     0.666667     0
C4       C     0.09375      0.212121     0.666667     0
C1       C     0.0625       0.287879     0            0
C2       C     0.09375      0.333334     0            0
C3       C     0.0625       0.348485     0            0
C4       C     0.09375      0.30303      0            0
C1       C     0.0625       0.287879     0.333333     0
C2       C     0.09375      0.333334     0.333333     0
C3       C     0.0625       0.348485     0.333333     0
C4       C     0.09375      0.30303      0.333333     0
C1       C     0.0625       0.287879     0.666667     0
C2       C     0.09375      0.333334     0.666667     0
C3       C     0.0625       0.348485     0.666667     0
C4       C     0.09375      0.30303      0.666667     0
C1       C     0.0625       0.378788     0            0
C2       C     0.09375      0.424243     0            0
C3       C     0.0625       0.439394     0            0
C4       C     0.09375      0.393939     0            0
C1       C     0.0625       0.378788     0.333333     0
C2       C     0.09375      0.424243     0.333333     0
C3       C     0.0625       0.439394     0.333333     0
C4       C     0.09375      0.393939     0.333333     0
C1       C     0.0625       0.378788     0.666667     0
C2       C     0.09375      0.424243     0.666667     0
C3       C     0.0625       0.439394     0.666667     0
C4       C     0.09375      0.393939     0.666667     0
C1       C     0.0625       0.469697     0            0
C2       C     0.09375      0.515152     0            0
C3       C     0.0625       0.530303     0            0
C4       C     0.09375      0.484848     0            0
C1       C     0.0625       0.469697     0.333333     0
C2       C     0.09375      0.515152     0.333333     0
C3       C     0.0625       0.530303     0.333333     0
C4       C     0.09375      0.484848     0.333333     0
C1       C     0.0625       0.469697     0.666667     0
C2       C     0.09375      0.515152     0.666667     0
C3       C     0.0625       0.530303     0.666667     0
C4       C     0.09375      0.484848     0.666667     0
C1       C     0.0625       0.560606     0            0
C2       C     0.09375      0.606061     0            0
C3       C     0.0625       0.621212     0            0
C4       C     0.09375      0.575757     0            0
C1       C     0.0625       0.560606     0.333333     0
C2       C     0.09375      0.606061     0.333333     0
C3       C     0.0625       0.621212     0.333333     0
C4       C     0.09375      0.575757     0.333333     0
C1       C     0.0625       0.560606     0.666667     0
C2       C     0.09375      0.606061     0.666667     0
C3       C     0.0625       0.621212     0.666667     0
C4       C     0.09375      0.575757     0.666667     0
C1       C     0.0625       0.651515     0            0
C2       C     0.09375      0.69697      0            0
C3       C     0.0625       0.712121     0            0
C4       C     0.09375      0.666666     0            0
C1       C     0.0625       0.651515     0.333333     0
C2       C     0.09375      0.69697      0.333333     0
C3       C     0.0625       0.712121     0.333333     0
C4       C     0.09375      0.666666     0.333333     0
C1       C     0.0625       0.651515     0.666667     0
C2       C     0.09375      0.69697      0.666667     0
C3       C     0.0625       0.712121     0.666667     0
C4       C     0.09375      0.666666     0.666667     0
C1       C     0.0625       0.742425     0            0
C2       C     0.09375      0.787879     0            0
C3       C     0.0625       0.80303      0            0
C4       C     0.09375      0.757575     0            0
C1       C     0.0625       0.742425     0.333333     0
C2       C     0.09375      0.787879     0.333333     0
C3       C     0.0625       0.80303      0.333333     0
C4       C     0.09375      0.757575     0.333333     0
C1       C     0.0625       0.742425     0.666667     0
C2       C     0.09375      0.787879     0.666667     0
C3       C     0.0625       0.80303      0.666667     0
C4       C     0.09375      0.757575     0.666667     0
C1       C     0.0625       0.833334     0            0
C2       C     0.09375      0.878788     0            0
C3       C     0.0625       0.893939     0            0
C4       C     0.09375      0.848485     0            0
C1       C     0.0625       0.833334     0.333333     0
C2       C     0.09375      0.878788     0.333333     0
C3       C     0.0625       0.893939     0.333333     0
C4       C     0.09375      0.848485     0.333333     0
C1       C     0.0625       0.833334     0.666667     0
C2       C     0.09375      0.878788     0.666667     0
C3       C     0.0625       0.893939     0.666667     0
C4       C     0.09375      0.848485     0.666667     0
C1       C     0.0625       0.924243     0            0
C2       C     0.09375      0.969697     0            0
C3       C     0.0625       0.984848     0            0
C4       C     0.09375      0.939394     0            0
C1       C     0.0625       0.924243     0.333333     0
C2       C     0.09375      0.969697     0.333333     0
C3       C     0.0625       0.984848     0.333333     0
C4       C     0.09375      0.939394     0.333333     0
C1       C     0.0625       0.924243     0.666667     0
C2       C     0.09375      0.969697     0.666667     0
C3       C     0.0625       0.984848     0.666667     0
C4       C     0.09375      0.939394     0.666667     0
C1       C     0.125        0.0151518    0            0
C2       C     0.15625      0.0606064    0            0
C3       C     0.125        0.0757573    0            0
C4       C     0.15625      0.0303027    0            0
C1       C     0.125        0.0151518    0.333333     0
C2       C     0.15625      0.0606064    0.333333     0
C3       C     0.125        0.0757573    0.333333     0
C4       C     0.15625      0.0303027    0.333333     0
C1       C     0.125        0.0151518    0.666667     0
C2       C     0.15625      0.0606064    0.666667     0
C3       C     0.125        0.0757573    0.666667     0
C4       C     0.15625      0.0303027    0.666667     0
C1       C     0.125        0.106061     0            0
C2       C     0.15625      0.151515     0            0
C3       C     0.125        0.166666     0            0
C4       C     0.15625      0.121212     0            0
C1       C     0.125        0.106061     0.333333     0
C2       C     0.15625      0.151515     0.333333     0
C3       C     0.125        0.166666     0.333333     0
C4       C     0.15625      0.121212     0.333333     0
C1       C     0.125        0.106061     0.666667     0
C2       C     0.15625      0.151515     0.666667     0
C3       C     0.125        0.166666     0.666667     0
C4       C     0.15625      0.121212     0.666667     0
C1       C     0.125        0.19697      0            0
C2       C     0.15625      0.242425     0            0
C3       C     0.125        0.257575     0            0
C4       C     0.15625      0.212121     0            0
C1       C     0.125        0.19697      0.333333     0
C2       C     0.15625      0.242425     0.333333     0
C3       C     0.125        0.257575     0.333333     0
C4       C     0.15625      0.212121     0.333333     0
C1       C     0.125        0.19697      0.666667     0
C2       C     0.15625      0.242425     0.666667     0
C3       C     0.125        0.257575     0.666667     0
C4       C     0.15625      0.212121     0.666667     0
C1       C     0.125        0.287879     0            0
C2       C     0.15625      0.333334     0            0
C3       C     0.125        0.348485     0            0
C4       C     0.15625      0.30303      0            0
C1       C     0.125        0.287879     0.333333     0
C2       C     0.15625      0.333334     0.333333     0
C3       C     0.125        0.348485     0.333333     0
C4       C     0.15625      0.30303      0.333333     0
C1       C     0.125        0.287879     0.666667     0
C2       C     0.15625      0.333334     0.666667     0
C3       C     0.125        0.348485     0.666667     0
C4       C     0.15625      0.30303      0.666667     0
C1       C     0.125        0.378788     0            0
C2       C     0.15625      0.424243     0            0
C3       C     0.125        0.439394     0            0
C4       C     0.15625      0.393939     0            0
C1       C     0.125        0.378788     0.333333     0
C2       C     0.15625      0.424243     0.333333     0
C3       C     0.125        0.439394     0.333333     0
C4       C     0.15625      0.393939     0.333333     0
C1       C     0.125        0.378788     0.666667     0
C2       C     0.15625      0.424243     0.666667     0
C3       C     0.125        0.439394     0.666667     0
C4       C     0.15625      0.393939     0.666667     0
C1       C     0.125        0.469697     0            0
C2       C     0.15625      0.515152     0            0
C3       C     0.125        0.530303     0            0
C4       C     0.15625      0.484848     0            0
C1       C     0.125        0.469697     0.333333     0
C2       C     0.15625      0.515152     0.333333     0
C3       C     0.125        0.530303     0.333333     0
C4       C     0.15625      0.484848     0.333333     0
C1       C     0.125        0.469697     0.666667     0
C2       C     0.15625      0.515152     0.666667     0
C3       C     0.125        0.530303     0.666667     0
C4       C     0.15625      0.484848     0.666667     0
C1       C     0.125        0.560606     0            0
C2       C     0.15625      0.606061     0            0
C3       C     0.125        0.621212     0            0
C4       C     0.15625      0.575757     0            0
C1       C     0.125        0.560606     0.333333     0
C2       C     0.15625      0.606061     0.333333     0
C3       C     0.125        0.621212     0.333333     0
C4       C     0.15625      0.575757     0.333333     0
C1       C     0.125        0.560606     0.666667     0
C2       C     0.15625      0.606061     0.666667     0
C3       C     0.125        0.621212     0.666667     0
C4       C     0.15625      0.575757     0.666667     0
C1       C     0.125        0.651515     0            0
C2       C     0.15625      0.69697      0            0
C3       C     0.125        0.712121     0            0
C4       C     0.15625      0.666666     0            0
C1       C     0.125        0.651515     0.333333     0
C2       C     0.15625      0.69697      0.333333     0
C3       C     0.125        0.712121     0.333333     0
C4       C     0.15625      0.666666     0.333333     0
C1       C     0.125        0.651515     0.666667     0
C2       C     0.15625      0.69697      0.666667     0
C3       C     0.125        0.712121     0.666667     0
C4       C     0.15625      0.666666     0.666667     0
C1       C     0.125        0.742425     0            0
C2       C     0.15625      0.787879     0            0
C3       C     0.125        0.80303      0            0
C4       C     0.15625      0.757575     0            0
C1       C     0.125        0.742425     0.333333     0
C2       C     0.15625      0.787879     0.333333     0
C3       C     0.125        0.80303      0.333333     0
C4       C     0.15625      0.757575     0.333333     0
C1       C     0.125        0.742425     0.666667     0
C2       C     0.15625      0.787879     0.666667     0
C3       C     0.125        0.80303      0.666667     0
C4       C     0.15625      0.757575     0.666667     0
C1       C     0.125        0.833334     0            0
C2       C     0.15625      0.878788     0            0
C3       C     0.125        0.893939     0            0
C4       C     0.15625      0.848485     0            0
C1       C     0.125        0.833334     0.333333     0
C2       C     0.15625      0.878788     0.333333     0
C3       C     0.125        0.893939     0.333333     0
C4       C     0.15625      0.848485     0.333333     0
C1       C     0.125        0.833334     0.666667     0
C2       C     0.15625      0.878788     0.666667     0
C3       C     0.125        0.893939     0.666667     0
C4       C     0.15625      0.848485     0.666667     0
C1       C     0.125        0.924243     0            0
C2       C     0.15625      0.969697     0            0
C3       C     0.125        0.984848     0            0
C4       C     0.15625      0.939394     0            0
C1       C     0.125        0.924243     0.333333     0
C2       C     0.15625      0.969697     0.333333     0
C3       C     0.125        0.984848     0.333333     0
C4       C     0.15625      0.939394     0.333333     0
C1       C     0.125        0.924243     0.666667     0
C2       C     0.15625      0.969697     0.666667     0
C3       C     0.125        0.984848     0.666667     0
C4       C     0.15625      0.939394     0.666667     0
C1       C     0.1875       0.0151518    0            0
C2       C     0.21875      0.0606064    0            0
C3       C     0.1875       0.0757573    0            0
C4       C     0.21875      0.0303027    0            0
C1       C     0.1875       0.0151518    0.333333     0
C2       C     0.21875      0.0606064    0.333333     0
C3       C     0.1875       0.0757573    0.333333     0
C4       C     0.21875      0.0303027    0.333333     0
C1       C     0.1875       0.0151518    0.666667     0
C2       C     0.21875      0.0606064    0.666667     0
C3       C     0.1875       0.0757573    0.666667     0
C4       C     0.21875      0.0303027    0.666667     0
C1       C     0.1875       0.106061     0            0
C2       C     0.21875      0.151515     0            0
C3       C     0.1875       0.166666     0            0
C4       C     0.21875      0.121212     0            0
C1       C     0.1875       0.106061     0.333333     0
C2       C     0.21875      0.151515     0.333333     0
C3       C     0.1875       0.166666     0.333333     0
C4       C     0.21875      0.121212     0.333333     0
C1       C     0.1875       0.106061     0.666667     0
C2       C     0.21875      0.151515     0.666667     0
C3       C     0.1875       0.166666     0.666667     0
C4       C     0.21875      0.121212     0.666667     0
C1       C     0.1875       0.19697      0            0
C2       C     0.21875      0.242425     0            0
C3       C     0.1875       0.257575     0            0
C4       C     0.21875      0.212121     0            0
C1       C     0.1875       0.19697      0.333333     0
C2       C     0.21875      0.242425     0.333333     0
C3       C     0.1875       0.257575     0.333333     0
C4       C     0.21875      0.212121     0.333333     0
C1       C     0.1875       0.19697      0.666667     0
C2       C     0.21875      0.242425     0.666667     0
C3       C     0.1875       0.257575     0.666667     0
C4       C     0.21875      0.212121     0.666667     0
C1       C     0.1875       0.287879     0            0
C2       C     0.21875      0.333334     0            0
C3       C     0.1875       0.348485     0            0
C4       C     0.21875      0.30303      0            0
C1       C     0.1875       0.287879     0.333333     0
C2       C     0.21875      0.333334     0.333333     0
C3       C     0.1875       0.348485     0.333333     0
C4       C     0.21875      0.30303      0.333333     0
C1       C     0.1875       0.287879     0.666667     0
C2       C     0.21875      0.333334     0.666667     0
C3       C     0.1875       0.348485     0.666667     0
C4       C     0.21875      0.30303      0.666667     0
C1       C     0.1875       0.378788     0            0
C2       C     0.21875      0.424243     0            0
C3       C     0.1875       0.439394     0            0
C4       C     0.21875      0.393939     0            0
C1       C     0.1875       0.378788     0.333333     0
C2       C     0.21875      0.424243     0.333333     0
C3       C     0.1875       0.439394     0.333333     0
C4       C     0.21875      0.393939     0.333333     0
C1       C     0.1875       0.378788     0.666667     0
C2       C     0.21875      0.424243     0.666667     0
C3       C     0.1875       0.439394     0.666667     0
C4       C     0.21875      0.393939     0.666667     0
C1       C     0.1875       0.469697     0            0
C2       C     0.21875      0.515152     0            0
C3       C     0.1875       0.530303     0            0
C4       C     0.21875      0.484848     0            0
C1       C     0.1875       0.469697     0.333333     0
C2       C     0.21875      0.515152     0.333333     0
C3       C     0.1875       0.530303     0.333333     0
C4       C     0.21875      0.484848     0.333333     0
C1       C     0.1875       0.469697     0.666667     0
C2       C     0.21875      0.515152     0.666667     0
C3       C     0.1875       0.530303     0.666667     0
C4       C     0.21875      0.484848     0.666667     0
C1       C     0.1875       0.560606     0            0
C2       C     0.21875      0.606061     0            0
C3       C     0.1875       0.621212     0            0
C4       C     0.21875      0.575757     0            0
C1       C     0.1875       0.560606     0.333333     0
C2       C     0.21875      0.606061     0.333333     0
C3       C     0.1875       0.621212     0.333333     0
C4       C     0.21875      0.575757     0.333333     0
C1       C     0.1875       0.560606     0.666667     0
C2       C     0.21875      0.606061     0.666667     0
C3       C     0.1875       0.621212     0.666667     0
C4       C     0.21875      0.575757     0.666667     0
C1       C     0.1875       0.651515     0            0
C2       C     0.21875      0.69697      0            0
C3       C     0.1875       0.712121     0            0
C4       C     0.21875      0.666666     0            0
C1       C     0.1875       0.651515     0.333333     0
C2       C     0.21875      0.69697      0.333333     0
C3       C     0.1875       0.712121     0.333333     0
C4       C     0.21875      0.666666     0.333333     0
C1       C     0.1875       0.651515     0.666667     0
C2       C     0.21875      0.69697      0.666667     0
C3       C     0.1875       0.712121     0.666667     0
C4       C     0.21875      0.666666     0.666667     0
C1       C     0.1875       0.742425     0            0
C2       C     0.21875      0.787879     0            0
C3       C     0.1875       0.80303      0            0
C4       C     0.21875      0.757575     0            0
C1       C     0.1875       0.742425     0.333333     0
C2       C     0.21875      0.787879     0.333333     0
C3       C     0.1875       0.80303      0.333333     0
C4       C     0.21875      0.757575     0.333333     0
C1       C     0.1875       0.742425     0.666667     0
C2       C     0.21875      0.787879     0.666667     0
C3       C     0.1875       0.80303      0.666667     0
C4       C     0.21875      0.757575     0.666667     0
C1       C     0.1875       0.833334     0            0
C2       C     0.21875      0.878788     0            0
C3       C     0.1875       0.893939     0            0
C4       C     0.21875      0.848485     0            0
C1       C     0.1875       0.833334     0.333333     0
C2       C     0.21875      0.878788     0.333333     0
C3       C     0.1875       0.893939     0.333333     0
C4       C     0.21875      0.848485     0.333333     0
C1       C     0.1875       0.833334     0.666667     0
C2       C     0.21875      0.878788     0.666667     0
C3       C     0.1875       0.893939     0.666667     0
C4       C     0.21875      0.848485     0.666667     0
C1       C     0.1875       0.924243     0            0
C2       C     0.21875      0.969697     0            0
C3       C     0.1875       0.984848     0            0
C4       C     0.21875      0.939394     0            0
C1       C     0.1875       0.924243     0.333333     0
C2       C     0.21875      0.969697     0.333333     0
C3       C     0.1875       0.984848     0.333333     0
C4       C     0.21875      0.939394     0.333333     0
C1       C     0.1875       0.924243     0.666667     0
C2       C     0.21875      0.969697     0.666667     0
C3       C     0.1875       0.984848     0.666667     0
C4       C     0.21875      0.939394     0.666667     0
C1       C     0.25         0.0151518    0            0
C2       C     0.28125      0.0606064    0            0
C3       C     0.25         0.0757573    0            0
C4       C     0.28125      0.0303027    0            0
C1       C     0.25         0.0151518    0.333333     0
C2       C     0.28125      0.0606064    0.333333     0
C3       C     0.25         0.0757573    0.333333     0
C4       C     0.28125      0.0303027    0.333333     0
C1       C     0.25         0.0151518    0.666667     0
C2       C     0.28125      0.0606064    0.666667     0
C3       C     0.25         0.0757573    0.666667     0
C4       C     0.28125      0.0303027    0.666667     0
C1       C     0.25         0.106061     0            0
C2       C     0.28125      0.151515     0            0
C3       C     0.25         0.166666     0            0
C4       C     0.28125      0.121212     0            0
C1       C     0.25         0.106061     0.333333     0
C2       C     0.28125      0.151515     0.333333     0
C3       C     0.25         0.166666     0.333333     0
C4       C     0.28125      0.121212     0.333333     0
C1       C     0.25         0.106061     0.666667     0
C2       C     0.28125      0.151515     0.666667     0
C3       C     0.25         0.166666     0.666667     0
C4       C     0.28125      0.121212     0.666667     0
C1       C     0.25         0.19697      0            0
C2       C     0.28125      0.242425     0            0
C3       C     0.25         0.257575     0            0
C4       C     0.28125      0.212121     0            0
C1       C     0.25         0.19697      0.333333     0
C2       C     0.28125      0.242425     0.333333     0
C3       C     0.25         0.257575     0.333333     0
C4       C     0.28125      0.212121     0.333333     0
C1       C     0.25         0.19697      0.666667     0
C2       C     0.28125      0.242425     0.666667     0
C3       C     0.25         0.257575     0.666667     0
C4       C     0.28125      0.212121     0.666667     0
C1       C     0.25         0.287879     0            0
C2       C     0.28125      0.333334     0            0
C3       C     0.25         0.348485     0            0
C4       C     0.28125      0.30303      0            0
C1       C     0.25         0.287879     0.333333     0
C2       C     0.28125      0.333334     0.333333     0
C3       C     0.25         0.348485     0.333333     0
C4       C     0.28125      0.30303      0.333333     0
C1       C     0.25         0.287879     0.666667     0
C2       C     0.28125      0.333334     0.666667     0
C3       C     0.25         0.348485     0.666667     0
C4       C     0.28125      0.30303      0.666667     0
C1       C     0.25         0.378788     0            0
C2       C     0.28125      0.424243     0            0
C3       C     0.25         0.439394     0            0
C4       C     0.28125      0.393939     0            0
C1       C     0.25         0.378788     0.333333     0
C2       C     0.28125      0.424243     0.333333     0
C3       C     0.25         0.439394     0.333333     0
C4       C     0.28125      0.393939     0.333333     0
C1       C     0.25         0.378788     0.666667     0
C2       C     0.28125      0.424243     0.666667     0
C3       C     0.25         0.439394     0.666667     0
C4       C     0.28125      0.393939     0.666667     0
C1       C     0.25         0.469697     0            0
C2       C     0.28125      0.515152     0            0
C3       C     0.25         0.530303     0            0
C4       C     0.28125      0.484848     0            0
C1       C     0.25         0.469697     0.333333     0
C2       C     0.28125      0.515152     0.333333     0
C3       C     0.25         0.530303     0.333333     0
C4       C     0.28125      0.484848     0.333333     0
C1       C     0.25         0.469697     0.666667     0
C2       C     0.28125      0.515152     0.666667     0
C3       C     0.25         0.530303     0.666667     0
C4       C     0.28125      0.484848     0.666667     0
C1       C     0.25         0.560606     0            0
C2       C     0.28125      0.606061     0            0
C3       C     0.25         0.621212     0            0
C4       C     0.28125      0.575757     0            0
C1       C     0.25         0.560606     0.333333     0
C2       C     0.28125      0.606061     0.333333     0
C3       C     0.25         0.621212     0.333333     0
C4       C     0.28125      0.575757     0.333333     0
C1       C     0.25         0.560606     0.666667     0
C2       C     0.28125      0.606061     0.666667     0
C3       C     0.25         0.621212     0.666667     0
C4       C     0.28125      0.575757     0.666667     0
C1       C     0.25         0.651515     0            0
C2       C     0.28125      0.69697      0            0
C3       C     0.25         0.712121     0            0
C4       C     0.28125      0.666666     0            0
C1       C     0.25         0.651515     0.333333     0
C2       C     0.28125      0.69697      0.333333     0
C3       C     0.25         0.712121     0.333333     0
C4       C     0.28125      0.666666     0.333333     0
C1       C     0.25         0.651515     0.666667     0
C2       C     0.28125      0.69697      0.666667     0
C3       C     0.25         0.712121     0.666667     0
C4       C     0.28125      0.666666     0.666667     0
C1       C     0.25         0.742425     0            0
C2       C     0.28125      0.787879     0            0
C3       C     0.25         0.80303      0            0
C4       C     0.28125      0.757575     0            0
C1       C     0.25         0.742425     0.333333     0
C2       C     0.28125      0.787879     0.333333     0
C3       C     0.25         0.80303      0.333333     0
C4       C     0.28125      0.757575     0.333333     0
C1       C     0.25         0.742425     0.666667     0
C2       C     0.28125      0.787879     0.666667     0
C3       C     0.25         0.80303      0.666667     0
C4       C     0.28125      0.757575     0.666667     0
C1       C     0.25         0.833334     0            0
C2       C     0.28125      0.878788     0            0
C3       C     0.25         0.893939     0            0
C4       C     0.28125      0.848485     0            0
C1       C     0.25         0.833334     0.333333     0
C2       C     0.28125      0.878788     0.333333     0
C3       C     0.25         0.893939     0.333333     0
C4       C     0.28125      0.848485     0.333333     0
C1       C     0.25         0.833334     0.666667     0
C2       C     0.28125      0.878788     0.666667     0
C3       C     0.25         0.893939     0.666667     0
C4       C     0.28125      0.848485     0.666667     0
C1       C     0.25         0.924243     0            0
C2       C     0.28125      0.969697     0            0
C3       C     0.25         0.984848     0            0
C4       C     0.28125      0.939394     0            0
C1       C     0.25         0.924243     0.333333     0
C2       C     0.28125      0.969697     0.333333     0
C3       C     0.25         0.984848     0.333333     0
C4       C     0.28125      0.939394     0.333333     0
C1       C     0.25         0.924243     0.666667     0
C2       C     0.28125      0.969697     0.666667     0
C3       C     0.25         0.984848     0.666667     0
C4       C     0.28125      0.939394     0.666667     0
C1       C     0.3125       0.0151518    0            0
C2       C     0.34375      0.0606064    0            0
C3       C     0.3125       0.0757573    0            0
C4       C     0.34375      0.0303027    0            0
C1       C     0.3125       0.0151518    0.333333     0
C2       C     0.34375      0.0606064    0.333333     0
C3       C     0.3125       0.0757573    0.333333     0
C4       C     0.34375      0.0303027    0.333333     0
C1       C     0.3125       0.0151518    0.666667     0
C2       C     0.34375      0.0606064    0.666667     0
C3       C     0.3125       0.0757573    0.666667     0
C4       C     0.34375      0.0303027    0.666667     0
C1       C     0.3125       0.106061     0            0
C2       C     0.34375      0.151515     0            0
C3       C     0.3125       0.166666     0            0
C4       C     0.34375      0.121212     0            0
C1       C     0.3125       0.106061     0.333333     0
C2       C     0.34375      0.151515     0.333333     0
C3       C     0.3125       0.166666     0.333333     0
C4       C     0.34375      0.121212     0.333333     0
C1       C     0.3125       0.106061     0.666667     0
C2       C     0.34375      0.151515     0.666667     0
C3       C     0.3125       0.166666     0.666667     0
C4       C     0.34375      0.121212     0.666667     0
C1       C     0.3125       0.19697      0            0
C2       C     0.34375      0.242425     0            0
C3       C     0.3125       0.257575     0            0
C4       C     0.34375      0.212121     0            0
C1       C     0.3125       0.19697      0.333333     0
C2       C     0.34375      0.242425     0.333333     0
C3       C     0.3125       0.257575     0.333333     0
C4       C     0.34375      0.212121     0.333333     0
C1       C     0.3125       0.19697      0.666667     0
C2       C     0.34375      0.242425     0.666667     0
C3       C     0.3125       0.257575     0.666667     0
C4       C     0.34375      0.212121     0.666667     0
C1       C     0.3125       0.287879     0            0
C2       C     0.34375      0.333334     0            0
C3       C     0.3125       0.348485     0            0
C4       C     0.34375      0.30303      0            0
C1       C     0.3125       0.287879     0.333333     0
C2       C     0.34375      0.333334     0.333333     0
C3       C     0.3125       0.348485     0.333333     0
C4       C     0.34375      0.30303      0.333333     0
C1       C     0.3125       0.287879     0.666667     0
C2       C     0.34375      0.333334     0.666667     0
C3       C     0.3125       0.348485     0.666667     0
C4       C     0.34375      0.30303      0.666667     0
C1       C     0.3125       0.378788     0            0
C2       C     0.34375      0.424243     0            0
C3       C     0.3125       0.439394     0            0
C4       C     0.34375      0.393939     0            0
C1       C     0.3125       0.378788     0.333333     0
C2       C     0.34375      0.424243     0.333333     0
C3       C     0.3125       0.439394     0.333333     0
C4       C     0.34375      0.393939     0.333333     0
C1       C     0.3125       0.378788     0.666667     0
C2       C     0.34375      0.424243     0.666667     0
C3       C     0.3125       0.439394     0.666667     0
C4       C     0.34375      0.393939     0.666667     0
C1       C     0.3125       0.469697     0            0
C2       C     0.34375      0.515152     0            0
C3       C     0.3125       0.530303     0            0
C4       C     0.34375      0.484848     0            0
C1       C     0.3125       0.469697     0.333333     0
C2       C     0.34375      0.515152     0.333333     0
C3       C     0.3125       0.530303     0.333333     0
C4       C     0.34375      0.484848     0.333333     0
C1       C     0.3125       0.469697     0.666667     0
C2       C     0.34375      0.515152     0.666667     0
C3       C     0.3125       0.530303     0.666667     0
C4       C     0.34375      0.484848     0.666667     0
C1       C     0.3125       0.560606     0            0
C2       C     0.34375      0.606061     0            0
C3       C     0.3125       0.621212     0            0
C4       C     0.34375      0.575757     0            0
C1       C     0.3125       0.560606     0.333333     0
C2       C     0.34375      0.606061     0.333333     0
C3       C     0.3125       0.621212     0.333333     0
C4       C     0.34375      0.575757     0.333333     0
C1       C     0.3125       0.560606     0.666667     0
C2       C     0.34375      0.606061     0.666667     0
C3       C     0.3125       0.621212     0.666667     0
C4       C     0.34375      0.575757     0.666667     0
C1       C     0.3125       0.651515     0            0
C2       C     0.34375      0.69697      0            0
C3       C     0.3125       0.712121     0            0
C4       C     0.34375      0.666666     0            0
C1       C     0.3125       0.651515     0.333333     0
C2       C     0.34375      0.69697      0.333333     0
C3       C     0.3125       0.712121     0.333333     0
C4       C     0.34375      0.666666     0.333333     0
C1       C     0.3125       0.651515     0.666667     0
C2       C     0.34375      0.69697      0.666667     0
C3       C     0.3125       0.712121     0.666667     0
C4       C     0.34375      0.666666     0.666667     0
C1       C     0.3125       0.742425     0            0
C2       C     0.34375      0.787879     0            0
C3       C     0.3125       0.80303      0            0
C4       C     0.34375      0.757575     0            0
C1       C     0.3125       0.742425     0.333333     0
C2       C     0.34375      0.787879     0.333333     0
C3       C     0.3125       0.80303      0.333333     0
C4       C     0.34375      0.757575     0.333333     0
C1       C     0.3125       0.742425     0.666667     0
C2       C     0.34375      0.787879     0.666667     0
C3       C     0.3125       0.80303      0.666667     0
C4       C     0.34375      0.757575     0.666667     0
C1       C     0.3125       0.833334     0            0
C2       C     0.34375      0.878788     0            0
C3       C     0.3125       0.893939     0            0
C4       C     0.34375      0.848485     0            0
C1       C     0.3125       0.833334     0.333333     0
C2       C     0.34375      0.878788     0.333333     0
C3       C     0.3125       0.893939     0.333333     0
C4       C     0.34375      0.848485     0.333333     0
C1       C     0.3125       0.833334     0.666667     0
C2       C     0.34375      0.878788     0.666667     0
C3       C     0.3125       0.893939     0.666667     0
C4       C     0.34375      0.848485     0.666667     0
C1       C     0.3125       0.924243     0            0
C2       C     0.34375      0.969697     0            0
C3       C     0.3125       0.984848     0            0
C4       C     0.34375      0.939394     0            0
C1       C     0.3125       0.924243     0.333333     0
C2       C     0.34375      0.969697     0.333333     0
C3       C     0.3125       0.984848     0.333333     0
C4       C     0.34375      0.939394     0.333333     0
C1       C     0.3125       0.924243     0.666667     0
C2       C     0.34375      0.969697     0.666667     0
C3       C     0.3125       0.984848     0.666667     0
C4       C     0.34375      0.939394     0.666667     0
C1       C     0.375        0.0151518    0            0
C2       C     0.40625      0.0606064    0            0
C3       C     0.375        0.0757573    0            0
C4       C     0.40625      0.0303027    0            0
C1       C     0.375        0.0151518    0.333333     0
C2       C     0.40625      0.0606064    0.333333     0
C3       C     0.375        0.0757573    0.333333     0
C4       C     0.40625      0.0303027    0.333333     0
C1       C     0.375        0.0151518    0.666667     0
C2       C     0.40625      0.0606064    0.666667     0
C3       C     0.375        0.0757573    0.666667     0
C4       C     0.40625      0.0303027    0.666667     0
C1       C     0.375        0.106061     0            0
C2       C     0.40625      0.151515     0            0
C3       C     0.375        0.166666     0            0
C4       C     0.40625      0.121212     0            0
C1       C     0.375        0.106061     0.333333     0
C2       C     0.40625      0.151515     0.333333     0
C3       C     0.375        0.166666     0.333333     0
C4       C     0.40625      0.121212     0.333333     0
C1       C     0.375        0.106061     0.666667     0
C2       C     0.40625      0.151515     0.666667     0
C3       C     0.375        0.166666     0.666667     0
C4       C     0.40625      0.121212     0.666667     0
C1       C     0.375        0.19697      0            0
C2       C     0.40625      0.242425     0            0
C3       C     0.375        0.257575     0            0
C4       C     0.40625      0.212121     0            0
C1       C     0.375        0.19697      0.333333     0
C2       C     0.40625      0.242425     0.333333     0
C3       C     0.375        0.257575     0.333333     0
C4       C     0.40625      0.212121     0.333333     0
C1       C     0.375        0.19697      0.666667     0
C2       C     0.40625      0.242425     0.666667     0
C3       C     0.375        0.257575     0.666667     0
C4       C     0.40625      0.212121     0.666667     0
C1       C     0.375        0.287879     0            0
C2       C     0.40625      0.333334     0            0
C3       C     0.375        0.348485     0            0
C4       C     0.40625      0.30303      0            0
C1       C     0.375        0.287879     0.333333     0
C2       C     0.40625      0.333334     0.333333     0
C3       C     0.375        0.348485     0.333333     0
C4       C     0.40625      0.30303      0.333333     0
C1       C     0.375        0.287879     0.666667     0
C2       C     0.40625      0.333334     0.666667     0
C3       C     0.375        0.348485     0.666667     0
C4       C     0.40625      0.30303      0.666667     0
C1       C     0.375        0.378788     0            0
C2       C     0.40625      0.424243     0            0
C3       C     0.375        0.439394     0            0
C4       C     0.40625      0.393939     0            0
C1       C     0.375        0.378788     0.333333     0
C2       C     0.40625      0.424243     0.333333     0
C3       C     0.375        0.439394     0.333333     0
C4       C     0.40625      0.393939     0.333333     0
C1       C     0.375        0.378788     0.666667     0
C2       C     0.40625      0.424243     0.666667     0
C3       C     0.375        0.439394     0.666667     0
C4       C     0.40625      0.393939     0.666667     0
C1       C     0.375        0.469697     0            0
C2       C     0.40625      0.515152     0            0
C3       C     0.375        0.530303     0            0
C4       C     0.40625      0.484848     0            0
C1       C     0.375        0.469697     0.333333     0
C2       C     0.40625      0.515152     0.333333     0
C3       C     0.375        0.530303     0.333333     0
C4       C     0.40625      0.484848     0.333333     0
C1       C     0.375        0.469697     0.666667     0
C2       C     0.40625      0.515152     0.666667     0
C3       C     0.375        0.530303     0.666667     0
C4       C     0.40625      0.484848     0.666667     0
C1       C     0.375        0.560606     0            0
C2       C     0.40625      0.606061     0            0
C3       C     0.375        0.621212     0            0
C4       C     0.40625      0.575757     0            0
C1       C     0.375        0.560606     0.333333     0
C2       C     0.40625      0.606061     0.333333     0
C3       C     0.375        0.621212     0.333333     0
C4       C     0.40625      0.575757     0.333333     0
C1       C     0.375        0.560606     0.666667     0
C2       C     0.40625      0.606061     0.666667     0
C3       C     0.375        0.621212     0.666667     0
C4       C     0.40625      0.575757     0.666667     0
C1       C     0.375        0.651515     0            0
C2       C     0.40625      0.69697      0            0
C3       C     0.375        0.712121     0            0
C4       C     0.40625      0.666666     0            0
C1       C     0.375        0.651515     0.333333     0
C2       C     0.40625      0.69697      0.333333     0
C3       C     0.375        0.712121     0.333333     0
C4       C     0.40625      0.666666     0.333333     0
C1       C     0.375        0.651515     0.666667     0
C2       C     0.40625      0.69697      0.666667     0
C3       C     0.375        0.712121     0.666667     0
C4       C     0.40625      0.666666     0.666667     0
C1       C     0.375        0.742425     0            0
C2       C     0.40625      0.787879     0            0
C3       C     0.375        0.80303      0            0
C4       C     0.40625      0.757575     0            0
C1       C     0.375        0.742425     0.333333     0
C2       C     0.40625      0.787879     0.333333     0
C3       C     0.375        0.80303      0.333333     0
C4       C     0.40625      0.757575     0.333333     0
C1       C     0.375        0.742425     0.666667     0
C2       C     0.40625      0.787879     0.666667     0
C3       C     0.375        0.80303      0.666667     0
C4       C     0.40625      0.757575     0.666667     0
C1       C     0.375        0.833334     0            0
C2       C     0.40625      0.878788     0            0
C3       C     0.375        0.893939     0            0
C4       C     0.40625      0.848485     0            0
C1       C     0.375        0.833334     0.333333     0
C2       C     0.40625      0.878788     0.333333     0
C3       C     0.375        0.893939     0.333333     0
C4       C     0.40625      0.848485     0.333333     0
C1       C     0.375        0.833334     0.666667     0
C2       C     0.40625      0.878788     0.666667     0
C3       C     0.375        0.893939     0.666667     0
C4       C     0.40625      0.848485     0.666667     0
C1       C     0.375        0.924243     0            0
C2       C     0.40625      0.969697     0            0
C3       C     0.375        0.984848     0            0
C4       C     0.40625      0.939394     0            0
C1       C     0.375        0.924243     0.333333     0
C2       C     0.40625      0.969697     0.333333     0
C3       C     0.375        0.984848     0.333333     0
C4       C     0.40625      0.939394     0.333333     0
C1       C     0.375        0.924243     0.666667     0
C2       C     0.40625      0.969697     0.666667     0
C3       C     0.375        0.984848     0.666667     0
C4       C     0.40625      0.939394     0.666667     0
C1       C     0.4375       0.0151518    0            0
C2       C     0.46875      0.0606064    0            0
C3       C     0.4375       0.0757573    0            0
C4       C     0.46875      0.0303027    0            0
C1       C     0.4375       0.0151518    0.333333     0
C2       C     0.46875      0.0606064    0.333333     0
C3       C     0.4375       0.0757573    0.333333     0
C4       C     0.46875      0.0303027    0.333333     0
C1       C     0.4375       0.0151518    0.666667     0
C2       C     0.46875      0.0606064    0.666667     0
C3       C     0.4375       0.0757573    0.666667     0
C4       C     0.46875      0.0303027    0.666667     0
C1       C     0.4375       0.106061     0            0
C2       C     0.46875      0.151515     0            0
C3       C     0.4375       0.166666     0            0
C4       C     0.46875      0.121212     0            0
C1       C     0.4375       0.106061     0.333333     0
C2       C     0.46875      0.151515     0.333333     0
C3       C     0.4375       0.166666     0.333333     0
C4       C     0.46875      0.121212     0.333333     0
C1       C     0.4375       0.106061     0.666667     0
C2       C     0.46875      0.151515     0.666667     0
C3       C     0.4375       0.166666     0.666667     0
C4       C     0.46875      0.121212     0.666667     0
C1       C     0.4375       0.19697      0            0
C2       C     0.46875      0.242425     0            0
C3       C     0.4375       0.257575     0            0
C4       C     0.46875      0.212121     0            0
C1       C     0.4375       0.19697      0.333333     0
C2       C     0.46875      0.242425     0.333333     0
C3       C     0.4375       0.257575     0.333333     0
C4       C     0.46875      0.212121     0.333333     0
C1       C     0.4375       0.19697      0.666667     0
C2       C     0.46875      0.242425     0.666667     0
C3       C     0.4375       0.257575     0.666667     0
C4       C     0.46875      0.212121     0.666667     0
C1       C     0.4375       0.287879     0            0
C2       C     0.46875      0.333334     0            0
C3       C     0.4375       0.348485     0            0
C4       C     0.46875      0.30303      0            0
C1       C     0.4375       0.287879     0.333333     0
C2       C     0.46875      0.333334     0.333333     0
C3       C     0.4375       0.348485     0.333333     0
C4       C     0.46875      0.30303      0.333333     0
C1       C     0.4375       0.287879     0.666667     0
C2       C     0.46875      0.333334     0.666667     0
C3       C     0.4375       0.348485     0.666667     0
C4       C     0.46875      0.30303      0.666667     0
C1       C     0.4375       0.378788     0            0
C2       C     0.46875      0.424243     0            0
C3       C     0.4375       0.439394     0            0
C4       C     0.46875      0.393939     0            0
C1       C     0.4375       0.378788     0.333333     0
C2       C     0.46875      0.424243     0.333333     0
C3       C     0.4375       0.439394     0.333333     0
C4       C     0.46875      0.393939     0.333333     0
C1       C     0.4375       0.378788     0.666667     0
C2       C     0.46875      0.424243     0.666667     0
C3       C     0.4375       0.439394     0.666667     0
C4       C     0.46875      0.393939     0.666667     0
C1       C     0.4375       0.469697     0            0
C2       C     0.46875      0.515152     0            0
C3       C     0.4375       0.530303     0            0
C4       C     0.46875      0.484848     0            0
C1       C     0.4375       0.469697     0.333333     0
C2       C     0.46875      0.515152     0.333333     0
C3       C     0.4375       0.530303     0.333333     0
C4       C     0.46875      0.484848     0.333333     0
C1       C     0.4375       0.469697     0.666667     0
C2       C     0.46875      0.515152     0.666667     0
C3       C     0.4375       0.530303     0.666667     0
C4       C     0.46875      0.484848     0.666667     0
C1       C     0.4375       0.560606     0            0
C2       C     0.46875      0.606061     0            0
C3       C     0.4375       0.621212     0            0
C4       C     0.46875      0.575757     0            0
C1       C     0.4375       0.560606     0.333333     0
C2       C     0.46875      0.606061     0.333333     0
C3       C     0.4375       0.621212     0.333333     0
C4       C     0.46875      0.575757     0.333333     0
C1       C     0.4375       0.560606     0.666667     0
C2       C     0.46875      0.606061     0.666667     0
C3       C     0.4375       0.621212     0.666667     0
C4       C     0.46875      0.575757     0.666667     0
C1       C     0.4375       0.651515     0            0
C2       C     0.46875      0.69697      0            0
C3       C     0.4375       0.712121     0            0
C4       C     0.46875      0.666666     0            0
C1       C     0.4375       0.651515     0.333333     0
C2       C     0.46875      0.69697      0.333333     0
C3       C     0.4375       0.712121     0.333333     0
C4       C     0.46875      0.666666     0.333333     0
C1       C     0.4375       0.651515     0.666667     0
C2       C     0.46875      0.69697      0.666667     0
C3       C     0.4375       0.712121     0.666667     0
C4       C     0.46875      0.666666     0.666667     0
C1       C     0.4375       0.742425     0            0
C2       C     0.46875      0.787879     0            0
C3       C     0.4375       0.80303      0            0
C4       C     0.46875      0.757575     0            0
C1       C     0.4375       0.742425     0.333333     0
C2       C     0.46875      0.787879     0.333333     0
C3       C     0.4375       0.80303      0.333333     0
C4       C     0.46875      0.757575     0.333333     0
C1       C     0.4375       0.742425     0.666667     0
C2       C     0.46875      0.787879     0.666667     0
C3       C     0.4375       0.80303      0.666667     0
C4       C     0.46875      0.757575     0.666667     0
C1       C     0.4375       0.833334     0            0
C2       C     0.46875      0.878788     0            0
C3       C     0.4375       0.893939     0            0
C4       C     0.46875      0.848485     0            0
C1       C     0.4375       0.833334     0.333333     0
C2       C     0.46875      0.878788     0.333333     0
C3       C     0.4375       0.893939     0.333333     0
C4       C     0.46875      0.848485     0.333333     0
C1       C     0.4375       0.833334     0.666667     0
C2       C     0.46875      0.878788     0.666667     0
C3       C     0.4375       0.893939     0.666667     0
C4       C     0.46875      0.848485     0.666667     0
C1       C     0.4375       0.924243     0            0
C2       C     0.46875      0.969697     0            0
C3       C     0.4375       0.984848     0            0
C4       C     0.46875      0.939394     0            0
C1       C     0.4375       0.924243     0.333333     0
C2       C     0.46875      0.969697     0.333333     0
C3       C     0.4375       0.984848     0.333333     0
C4       C     0.46875      0.939394     0.333333     0
C1       C     0.4375       0.924243     0.666667     0
C2       C     0.46875      0.969697     0.666667     0
C3       C     0.4375       0.984848     0.666667     0
C4       C     0.46875      0.939394     0.666667     0
C1       C     0.5          0.0151518    0            0
C2       C     0.53125      0.0606064    0            0
C3       C     0.5          0.0757573    0            0
C4       C     0.53125      0.0303027    0            0
C1       C     0.5          0.0151518    0.333333     0
C2       C     0.53125      0.0606064    0.333333     0
C3       C     0.5          0.0757573    0.333333     0
C4       C     0.53125      0.0303027    0.333333     0
C1       C     0.5          0.0151518    0.666667     0
C2       C     0.53125      0.0606064    0.666667     0
C3       C     0.5          0.0757573    0.666667     0
C4       C     0.53125      0.0303027    0.666667     0
C1       C     0.5          0.106061     0            0
C2       C     0.53125      0.151515     0            0
C3       C     0.5          0.166666     0            0
C4       C     0.53125      0.121212     0            0
C1       C     0.5          0.106061     0.333333     0
C2       C     0.53125      0.151515     0.333333     0
C3       C     0.5          0.166666     0.333333     0
C4       C     0.53125      0.121212     0.333333     0
C1       C     0.5          0.106061     0.666667     0
C2       C     0.53125      0.151515     0.666667     0
C3       C     0.5          0.166666     0.666667     0
C4       C     0.53125      0.121212     0.666667     0
C1       C     0.5          0.19697      0            0
C2       C     0.53125      0.242425     0            0
C3       C     0.5          0.257575     0            0
C4       C     0.53125      0.212121     0            0
C1       C     0.5          0.19697      0.333333     0
C2       C     0.53125      0.242425     0.333333     0
C3       C     0.5          0.257575     0.333333     0
C4       C     0.53125      0.212121     0.333333     0
C1       C     0.5          0.19697      0.666667     0
C2       C     0.53125      0.242425     0.666667     0
C3       C     0.5          0.257575     0.666667     0
C4       C     0.53125      0.212121     0.666667     0
C1       C     0.5          0.287879     0            0
C2       C     0.53125      0.333334     0            0
C3       C     0.5          0.348485     0            0
C4       C     0.53125      0.30303      0            0
C1       C     0.5          0.287879     0.333333     0
C2       C     0.53125      0.333334     0.333333     0
C3       C     0.5          0.348485     0.333333     0
C4       C     0.53125      0.30303      0.333333     0
C1       C     0.5          0.287879     0.666667     0
C2       C     0.53125      0.333334     0.666667     0
C3       C     0.5          0.348485     0.666667     0
C4       C     0.53125      0.30303      0.666667     0
C1       C     0.5          0.378788     0            0
C2       C     0.53125      0.424243     0            0
C3       C     0.5          0.439394     0            0
C4       C     0.53125      0.393939     0            0
C1       C     0.5          0.378788     0.333333     0
C2       C     0.53125      0.424243     0.333333     0
C3       C     0.5          0.439394     0.333333     0
C4       C     0.53125      0.393939     0.333333     0
C1       C     0.5          0.378788     0.666667     0
C2       C     0.53125      0.424243     0.666667     0
C3       C     0.5          0.439394     0.666667     0
C4       C     0.53125      0.393939     0.666667     0
C1       C     0.5          0.469697     0            0
C2       C     0.53125      0.515152     0            0
C3       C     0.5          0.530303     0            0
C4       C     0.53125      0.484848     0            0
C1       C     0.5          0.469697     0.333333     0
C2       C     0.53125      0.515152     0.333333     0
C3       C     0.5          0.530303     0.333333     0
C4       C     0.53125      0.484848     0.333333     0
C1       C     0.5          0.469697     0.666667     0
C2       C     0.53125      0.515152     0.666667     0
C3       C     0.5          0.530303     0.666667     0
C4       C     0.53125      0.484848     0.666667     0
C1       C     0.5          0.560606     0            0
C2       C     0.53125      0.606061     0            0
C3       C     0.5          0.621212     0            0
C4       C     0.53125      0.575757     0            0
C1       C     0.5          0.560606     0.333333     0
C2       C     0.53125      0.606061     0.333333     0
C3       C     0.5          0.621212     0.333333     0
C4       C     0.53125      0.575757     0.333333     0
C1       C     0.5          0.560606     0.666667     0
C2       C     0.53125      0.606061     0.666667     0
C3       C     0.5          0.621212     0.666667     0
C4       C     0.53125      0.575757     0.666667     0
C1       C     0.5          0.651515     0            0
C2       C     0.53125      0.69697      0            0
C3       C     0.5          0.712121     0            0
C4       C     0.53125      0.666666     0            0
C1       C     0.5          0.651515     0.333333     0
C2       C     0.53125      0.69697      0.333333     0
C3       C     0.5          0.712121     0.333333     0
C4       C     0.53125      0.666666     0.333333     0
C1       C     0.5          0.651515     0.666667     0
C2       C     0.53125      0.69697      0.666667     0
C3       C     0.5          0.712121     0.666667     0
C4       C     0.53125      0.666666     0.666667     0
C1       C     0.5          0.742425     0            0
C2       C     0.53125      0.787879     0            0
C3       C     0.5          0.80303      0            0
C4       C     0.53125      0.757575     0            0
C1       C     0.5          0.742425     0.333333     0
C2       C     0.53125      0.787879     0.333333     0
C3       C     0.5          0.80303      0.333333     0
C4       C     0.53125      0.757575     0.333333     0
C1       C     0.5          0.742425     0.666667     0
C2       C     0.53125      0.787879     0.666667     0
C3       C     0.5          0.80303      0.666667     0
C4       C     0.53125      0.757575     0.666667     0
C1       C     0.5          0.833334     0            0
C2       C     0.53125      0.878788     0            0
C3       C     0.5          0.893939     0            0
C4       C     0.53125      0.848485     0            0
C1       C     0.5          0.833334     0.333333     0
C2       C     0.53125      0.878788     0.333333     0
C3       C     0.5          0.893939     0.333333     0
C4       C     0.53125      0.848485     0.333333     0
C1       C     0.5          0.833334     0.666667     0
C2       C     0.53125      0.878788     0.666667     0
C3       C     0.5          0.893939     0.666667     0
C4       C     0.53125      0.848485     0.666667     0
C1       C     0.5          0.924243     0            0
C2       C     0.53125      0.969697     0            0
C3       C     0.5          0.984848     0            0
C4       C     0.53125      0.939394     0            0
C1       C     0.5          0.924243     0.333333     0
C2       C     0.53125      0.969697     0.333333     0
C3       C     0.5          0.984848     0.333333     0
C4       C     0.53125      0.939394     0.333333     0
C1       C     0.5          0.924243     0.666667     0
C2       C     0.53125      0.969697     0.666667     0
C3       C     0.5          0.984848     0.666667     0
C4       C     0.53125      0.939394     0.666667     0
C1       C     0.5625       0.0151518    0            0
C2       C     0.59375      0.0606064    0            0
C3       C     0.5625       0.0757573    0            0
C4       C     0.59375      0.0303027    0            0
C1       C     0.5625       0.0151518    0.333333     0
C2       C     0.59375      0.0606064    0.333333     0
C3       C     0.5625       0.0757573    0.333333     0
C4       C     0.59375      0.0303027    0.333333     0
C1       C     0.5625       0.0151518    0.666667     0
C2       C     0.59375      0.0606064    0.666667     0
C3       C     0.5625       0.0757573    0.666667     0
C4       C     0.59375      0.0303027    0.666667     0
C1       C     0.5625       0.106061     0            0
C2       C     0.59375      0.151515     0            0
C3       C     0.5625       0.166666     0            0
C4       C     0.59375      0.121212     0            0
C1       C     0.5625       0.106061     0.333333     0
C2       C     0.59375      0.151515     0.333333     0
C3       C     0.5625       0.166666     0.333333     0
C4       C     0.59375      0.121212     0.333333     0
C1       C     0.5625       0.106061     0.666667     0
C2       C     0.59375      0.151515     0.666667     0
C3       C     0.5625       0.166666     0.666667     0
C4       C     0.59375      0.121212     0.666667     0
C1       C     0.5625       0.19697      0            0
C2       C     0.59375      0.242425     0            0
C3       C     0.5625       0.257575     0            0
C4       C     0.59375      0.212121     0            0
C1       C     0.5625       0.19697      0.333333     0
C2       C     0.59375      0.242425     0.333333     0
C3       C     0.5625       0.257575     0.333333     0
C4       C     0.59375      0.212121     0.333333     0
C1       C     0.5625       0.19697      0.666667     0
C2       C     0.59375      0.242425     0.666667     0
C3       C     0.5625       0.257575     0.666667     0
C4       C     0.59375      0.212121     0.666667     0
C1       C     0.5625       0.287879     0            0
C2       C     0.59375      0.333334     0            0
C3       C     0.5625       0.348485     0            0
C4       C     0.59375      0.30303      0            0
C1       C     0.5625       0.287879     0.333333     0
C2       C     0.59375      0.333334     0.333333     0
C3       C     0.5625       0.348485     0.333333     0
C4       C     0.59375      0.30303      0.333333     0
C1       C     0.5625       0.287879     0.666667     0
C2       C     0.59375      0.333334     0.666667     0
C3       C     0.5625       0.348485     0.666667     0
C4       C     0.59375      0.30303      0.666667     0
C1       C     0.5625       0.378788     0            0
C2       C     0.59375      0.424243     0            0
C3       C     0.5625       0.439394     0            0
C4       C     0.59375      0.393939     0            0
C1       C     0.5625       0.378788     0.333333     0
C2       C     0.59375      0.424243     0.333333     0
C3       C     0.5625       0.439394     0.333333     0
C4       C     0.59375      0.393939     0.333333     0
C1       C     0.5625       0.378788     0.666667     0
C2       C     0.59375      0.424243     0.666667     0
C3       C     0.5625       0.439394     0.666667     0
C4       C     0.59375      0.393939     0.666667     0
C1       C     0.5625       0.469697     0            0
C2       C     0.59375      0.515152     0            0
C3       C     0.5625       0.530303     0            0
C4       C     0.59375      0.484848     0            0
C1       C     0.5625       0.469697     0.333333     0
C2       C     0.59375      0.515152     0.333333     0
C3       C     0.5625       0.530303     0.333333     0
C4       C     0.59375      0.484848     0.333333     0
C1       C     0.5625       0.469697     0.666667     0
C2       C     0.59375      0.515152     0.666667     0
C3       C     0.5625       0.530303     0.666667     0
C4       C     0.59375      0.484848     0.666667     0
C1       C     0.5625       0.560606     0            0
C2       C     0.59375      0.606061     0            0
C3       C     0.5625       0.621212     0            0
C4       C     0.59375      0.575757     0            0
C1       C     0.5625       0.560606     0.333333     0
C2       C     0.59375      0.606061     0.333333     0
C3       C     0.5625       0.621212     0.333333     0
C4       C     0.59375      0.575757     0.333333     0
C1       C     0.5625       0.560606     0.666667     0
C2       C     0.59375      0.606061     0.666667     0
C3       C     0.5625       0.621212     0.666667     0
C4       C     0.59375      0.575757     0.666667     0
C1       C     0.5625       0.651515     0            0
C2       C     0.59375      0.69697      0            0
C3       C     0.5625       0.712121     0            0
C4       C     0.59375      0.666666     0            0
C1       C     0.5625       0.651515     0.333333     0
C2       C     0.59375      0.69697      0.333333     0
C3       C     0.5625       0.712121     0.333333     0
C4       C     0.59375      0.666666     0.333333     0
C1       C     0.5625       0.651515     0.666667     0
C2       C     0.59375      0.69697      0.666667     0
C3       C     0.5625       0.712121     0.666667     0
C4       C     0.59375      0.666666     0.666667     0
C1       C     0.5625       0.742425     0            0
C2       C     0.59375      0.787879     0            0
C3       C     0.5625       0.80303      0            0
C4       C     0.59375      0.757575     0            0
C1       C     0.5625       0.742425     0.333333     0
C2       C     0.59375      0.787879     0.333333     0
C3       C     0.5625       0.80303      0.333333     0
C4       C     0.59375      0.757575     0.333333     0
C1       C     0.5625       0.742425     0.666667     0
C2       C     0.59375      0.787879     0.666667     0
C3       C     0.5625       0.80303      0.666667     0
C4       C     0.59375      0.757575     0.666667     0
C1       C     0.5625       0.833334     0            0
C2       C     0.59375      0.878788     0            0
C3       C     0.5625       0.893939     0            0
C4       C     0.59375      0.848485     0            0
C1       C     0.5625       0.833334     0.333333     0
C2       C     0.59375      0.878788     0.333333     0
C3       C     0.5625       0.893939     0.333333     0
C4       C     0.59375      0.848485     0.333333     0
C1       C     0.5625       0.833334     0.666667     0
C2       C     0.59375      0.878788     0.666667     0
C3       C     0.5625       0.893939     0.666667     0
C4       C     0.59375      0.848485     0.666667     0
C1       C     0.5625       0.924243     0            0
C2       C     0.59375      0.969697     0            0
C3       C     0.5625       0.984848     0            0
C4       C     0.59375      0.939394     0            0
C1       C     0.5625       0.924243     0.333333     0
C2       C     0.59375      0.969697     0.333333     0
C3       C     0.5625       0.984848     0.333333     0
C4       C     0.59375      0.939394     0.333333     0
C1       C     0.5625       0.924243     0.666667     0
C2       C     0.59375      0.969697     0.666667     0
C3       C     0.5625       0.984848     0.666667     0
C4       C     0.59375      0.939394     0.666667     0
C1       C     0.625        0.0151518    0            0
C2       C     0.65625      0.0606064    0            0
C3       C     0.625        0.0757573    0            0
C4       C     0.65625      0.0303027    0            0
C1       C     0.625        0.0151518    0.333333     0
C2       C     0.65625      0.0606064    0.333333     0
C3       C     0.625        0.0757573    0.333333     0
C4       C     0.65625      0.0303027    0.333333     0
C1       C     0.625        0.0151518    0.666667     0
C2       C     0.65625      0.0606064    0.666667     0
C3       C     0.625        0.0757573    0.666667     0
C4       C     0.65625      0.0303027    0.666667     0
C1       C     0.625        0.106061     0            0
C2       C     0.65625      0.151515     0            0
C3       C     0.625        0.166666     0            0
C4       C     0.65625      0.121212     0            0
C1       C     0.625        0.106061     0.333333     0
C2       C     0.65625      0.151515     0.333333     0
C3       C     0.625        0.166666     0.333333     0
C4       C     0.65625      0.121212     0.333333     0
C1       C     0.625        0.106061     0.666667     0
C2       C     0.65625      0.151515     0.666667     0
C3       C     0.625        0.166666     0.666667     0
C4       C     0.65625      0.121212     0.666667     0
C1       C     0.625        0.19697      0            0
C2       C     0.65625      0.242425     0            0
C3       C     0.625        0.257575     0            0
C4       C     0.65625      0.212121     0            0
C1       C     0.625        0.19697      0.333333     0
C2       C     0.65625      0.242425     0.333333     0
C3       C     0.625        0.257575     0.333333     0
C4       C     0.65625      0.212121     0.333333     0
C1       C     0.625        0.19697      0.666667     0
C2       C     0.65625      0.242425     0.666667     0
C3       C     0.625        0.257575     0.666667     0
C4       C     0.65625      0.212121     0.666667     0
C1       C     0.625        0.287879     0            0
C2       C     0.65625      0.333334     0            0
C3       C     0.625        0.348485     0            0
C4       C     0.65625      0.30303      0            0
C1       C     0.625        0.287879     0.333333     0
C2       C     0.65625      0.333334     0.333333     0
C3       C     0.625        0.348485     0.333333     0
C4       C     0.65625      0.30303      0.333333     0
C1       C     0.625        0.287879     0.666667     0
C2       C     0.65625      0.333334     0.666667     0
C3       C     0.625        0.348485     0.666667     0
C4       C     0.65625      0.30303      0.666667     0
C1       C     0.625        0.378788     0            0
C2       C     0.65625      0.424243     0            0
C3       C     0.625        0.439394     0            0
C4       C     0.65625      0.393939     0            0
C1       C     0.625        0.378788     0.333333     0
C2       C     0.65625      0.424243     0.333333     0
C3       C     0.625        0.439394     0.333333     0
C4       C     0.65625      0.393939     0.333333     0
C1       C     0.625        0.378788     0.666667     0
C2       C     0.65625      0.424243     0.666667     0
C3       C     0.625        0.439394     0.666667     0
C4       C     0.65625      0.393939     0.666667     0
C1       C     0.625        0.469697     0            0
C2       C     0.65625      0.515152     0            0
C3       C     0.625        0.530303     0            0
C4       C     0.65625      0.484848     0            0
C1       C     0.625        0.469697     0.333333     0
C2       C     0.65625      0.515152     0.333333     0
C3       C     0.625        0.530303     0.333333     0
C4       C     0.65625      0.484848     0.333333     0
C1       C     0.625        0.469697     0.666667     0
C2       C     0.65625      0.515152     0.666667     0
C3       C     0.625        0.530303     0.666667     0
C4       C     0.65625      0.484848     0.666667     0
C1       C     0.625        0.560606     0            0
C2       C     0.65625      0.606061     0            0
C3       C     0.625        0.621212     0            0
C4       C     0.65625      0.575757     0            0
C1       C     0.625        0.560606     0.333333     0
C2       C     0.65625      0.606061     0.333333     0
C3       C     0.625        0.621212     0.333333     0
C4       C     0.65625      0.575757     0.333333     0
C1       C     0.625        0.560606     0.666667     0
C2       C     0.65625      0.606061     0.666667     0
C3       C     0.625        0.621212     0.666667     0
C4       C     0.65625      0.575757     0.666667     0
C1       C     0.625        0.651515     0            0
C2       C     0.65625      0.69697      0            0
C3       C     0.625        0.712121     0            0
C4       C     0.65625      0.666666     0            0
C1       C     0.625        0.651515     0.333333     0
C2       C     0.65625      0.69697      0.333333     0
C3       C     0.625        0.712121     0.333333     0
C4       C     0.65625      0.666666     0.333333     0
C1       C     0.625        0.651515     0.666667     0
C2       C     0.65625      0.69697      0.666667     0
C3       C     0.625        0.712121     0.666667     0
C4       C     0.65625      0.666666     0.666667     0
C1       C     0.625        0.742425     0            0
C2       C     0.65625      0.787879     0            0
C3       C     0.625        0.80303      0            0
C4       C     0.65625      0.757575     0            0
C1       C     0.625        0.742425     0.333333     0
C2       C     0.65625      0.787879     0.333333     0
C3       C     0.625        0.80303      0.333333     0
C4       C     0.65625      0.757575     0.333333     0
C1       C     0.625        0.742425     0.666667     0
C2       C     0.65625      0.787879     0.666667     0
C3       C     0.625        0.80303      0.666667     0
C4       C     0.65625      0.757575     0.666667     0
C1       C     0.625        0.833334     0            0
C2       C     0.65625      0.878788     0            0
C3       C     0.625        0.893939     0            0
C4       C     0.65625      0.848485     0            0
C1       C     0.625        0.833334     0.333333     0
C2       C     0.65625      0.878788     0.333333     0
C3       C     0.625        0.893939     0.333333     0
C4       C     0.65625      0.848485     0.333333     0
C1       C     0.625        0.833334     0.666667     0
C2       C     0.65625      0.878788     0.666667     0
C3       C     0.625        0.893939     0.666667     0
C4       C     0.65625      0.848485     0.666667     0
C1       C     0.625        0.924243     0            0
C2       C     0.65625      0.969697     0            0
C3       C     0.625        0.984848     0            0
C4       C     0.65625      0.939394     0            0
C1       C     0.625        0.924243     0.333333     0
C2       C     0.65625      0.969697     0.333333     0
C3       C     0.625        0.984848     0.333333     0
C4       C     0.65625      0.939394     0.333333     0
C1       C     0.625        0.924243     0.666667     0
C2       C     0.65625      0.969697     0.666667     0
C3       C     0.625        0.984848     0.666667     0
C4       C     0.65625      0.939394     0.666667     0
C1       C     0.6875       0.0151518    0            0
C2       C     0.71875      0.0606064    0            0
C3       C     0.6875       0.0757573    0            0
C4       C     0.71875      0.0303027    0            0
C1       C     0.6875       0.0151518    0.333333     0
C2       C     0.71875      0.0606064    0.333333     0
C3       C     0.6875       0.0757573    0.333333     0
C4       C     0.71875      0.0303027    0.333333     0
C1       C     0.6875       0.0151518    0.666667     0
C2       C     0.71875      0.0606064    0.666667     0
C3       C     0.6875       0.0757573    0.666667     0
C4       C     0.71875      0.0303027    0.666667     0
C1       C     0.6875       0.106061     0            0
C2       C     0.71875      0.151515     0            0
C3       C     0.6875       0.166666     0            0
C4       C     0.71875      0.121212     0            0
C1       C     0.6875       0.106061     0.333333     0
C2       C     0.71875      0.151515     0.333333     0
C3       C     0.6875       0.166666     0.333333     0
C4       C     0.71875      0.121212     0.333333     0
C1       C     0.6875       0.106061     0.666667     0
C2       C     0.71875      0.151515     0.666667     0
C3       C     0.6875       0.166666     0.666667     0
C4       C     0.71875      0.121212     0.666667     0
C1       C     0.6875       0.19697      0            0
C2       C     0.71875      0.242425     0            0
C3       C     0.6875       0.257575     0            0
C4       C     0.71875      0.212121     0            0
C1       C     0.6875       0.19697      0.333333     0
C2       C     0.71875      0.242425     0.333333     0
C3       C     0.6875       0.257575     0.333333     0
C4       C     0.71875      0.212121     0.333333     0
C1       C     0.6875       0.19697      0.666667     0
C2       C     0.71875      0.242425     0.666667     0
C3       C     0.6875       0.257575     0.666667     0
C4       C     0.71875      0.212121     0.666667     0
C1       C     0.6875       0.287879     0            0
C2       C     0.71875      0.333334     0            0
C3       C     0.6875       0.348485     0            0
C4       C     0.71875      0.30303      0            0
C1       C     0.6875       0.287879     0.333333     0
C2       C     0.71875      0.333334     0.333333     0
C3       C     0.6875       0.348485     0.333333     0
C4       C     0.71875      0.30303      0.333333     0
C1       C     0.6875       0.287879     0.666667     0
C2       C     0.71875      0.333334     0.666667     0
C3       C     0.6875       0.348485     0.666667     0
C4       C     0.71875      0.30303      0.666667     0
C1       C     0.6875       0.378788     0            0
C2       C     0.71875      0.424243     0            0
C3       C     0.6875       0.439394     0            0
C4       C     0.71875      0.393939     0            0
C1       C     0.6875       0.378788     0.333333     0
C2       C     0.71875      0.424243     0.333333     0
C3       C     0.6875       0.439394     0.333333     0
C4       C     0.71875      0.393939     0.333333     0
C1       C     0.6875       0.378788     0.666667     0
C2       C     0.71875      0.424243     0.666667     0
C3       C     0.6875       0.439394     0.666667     0
C4       C     0.71875      0.393939     0.666667     0
C1       C     0.6875       0.469697     0            0
C2       C     0.71875      0.515152     0            0
C3       C     0.6875       0.530303     0            0
C4       C     0.71875      0.484848     0            0
C1       C     0.6875       0.469697     0.333333     0
C2       C     0.71875      0.515152     0.333333     0
C3       C     0.6875       0.530303     0.333333     0
C4       C     0.71875      0.484848     0.333333     0
C1       C     0.6875       0.469697     0.666667     0
C2       C     0.71875      0.515152     0.666667     0
C3       C     0.6875       0.530303     0.666667     0
C4       C     0.71875      0.484848     0.666667     0
C1       C     0.6875       0.560606     0            0
C2       C     0.71875      0.606061     0            0
C3       C     0.6875       0.621212     0            0
C4       C     0.71875      0.575757     0            0
C1       C     0.6875       0.560606     0.333333     0
C2       C     0.71875      0.606061     0.333333     0
C3       C     0.6875       0.621212     0.333333     0
C4       C     0.71875      0.575757     0.333333     0
C1       C     0.6875       0.560606     0.666667     0
C2       C     0.71875      0.606061     0.666667     0
C3       C     0.6875       0.621212     0.666667     0
C4       C     0.71875      0.575757     0.666667     0
C1       C     0.6875       0.651515     0            0
C2       C     0.71875      0.69697      0            0
C3       C     0.6875       0.712121     0            0
C4       C     0.71875      0.666666     0            0
C1       C     0.6875       0.651515     0.333333     0
C2       C     0.71875      0.69697      0.333333     0
C3       C     0.6875       0.712121     0.333333     0
C4       C     0.71875      0.666666     0.333333     0
C1       C     0.6875       0.651515     0.666667     0
C2       C     0.71875      0.69697      0.666667     0
C3       C     0.6875       0.712121     0.666667     0
C4       C     0.71875      0.666666     0.666667     0
C1       C     0.6875       0.742425     0            0
C2       C     0.71875      0.787879     0            0
C3       C     0.6875       0.80303      0            0
C4       C     0.71875      0.757575     0            0
C1       C     0.6875       0.742425     0.333333     0
C2       C     0.71875      0.787879     0.333333     0
C3       C     0.6875       0.80303      0.333333     0
C4       C     0.71875      0.757575     0.333333     0
C1       C     0.6875       0.742425     0.666667     0
C2       C     0.71875      0.787879     0.666667     0
C3       C     0.6875       0.80303      0.666667     0
C4       C     0.71875      0.757575     0.666667     0
C1       C     0.6875       0.833334     0            0
C2       C     0.71875      0.878788     0            0
C3       C     0.6875       0.893939     0            0
C4       C     0.71875      0.848485     0            0
C1       C     0.6875       0.833334     0.333333     0
C2       C     0.71875      0.878788     0.333333     0
C3       C     0.6875       0.893939     0.333333     0
C4       C     0.71875      0.848485     0.333333     0
C1       C     0.6875       0.833334     0.666667     0
C2       C     0.71875      0.878788     0.666667     0
C3       C     0.6875       0.893939     0.666667     0
C4       C     0.71875      0.848485     0.666667     0
C1       C     0.6875       0.924243     0            0
C2       C     0.71875      0.969697     0            0
C3       C     0.6875       0.984848     0            0
C4       C     0.71875      0.939394     0            0
C1       C     0.6875       0.924243     0.333333     0
C2       C     0.71875      0.969697     0.333333     0
C3       C     0.6875       0.984848     0.333333     0
C4       C     0.71875      0.939394     0.333333     0
C1       C     0.6875       0.924243     0.666667     0
C2       C     0.71875      0.969697     0.666667     0
C3       C     0.6875       0.984848     0.666667     0
C4       C     0.71875      0.939394     0.666667     0
C1       C     0.75         0.0151518    0            0
C2       C     0.78125      0.0606064    0            0
C3       C     0.75         0.0757573    0            0
C4       C     0.78125      0.0303027    0            0
C1       C     0.75         0.0151518    0.333333     0
C2       C     0.78125      0.0606064    0.333333     0
C3       C     0.75         0.0757573    0.333333     0
C4       C     0.78125      0.0303027    0.333333     0
C1       C     0.75         0.0151518    0.666667     0
C2       C     0.78125      0.0606064    0.666667     0
C3       C     0.75         0.0757573    0.666667     0
C4       C     0.78125      0.0303027    0.666667     0
C1       C     0.75         0.106061     0            0
C2       C     0.78125      0.151515     0            0
C3       C     0.75         0.166666     0            0
C4       C     0.78125      0.121212     0            0
C1       C     0.75         0.106061     0.333333     0
C2       C     0.78125      0.151515     0.333333     0
C3       C     0.75         0.166666     0.333333     0
C4       C     0.78125      0.121212     0.333333     0
C1       C     0.75         0.106061     0.666667     0
C2       C     0.78125      0.151515     0.666667     0
C3       C     0.75         0.166666     0.666667     0
C4       C     0.78125      0.121212     0.666667     0
C1       C     0.75         0.19697      0            0
C2       C     0.78125      0.242425     0            0
C3       C     0.75         0.257575     0            0
C4       C     0.78125      0.212121     0            0
C1       C     0.75         0.19697      0.333333     0
C2       C     0.78125      0.242425     0.333333     0
C3       C     0.75         0.257575     0.333333     0
C4       C     0.78125      0.212121     0.333333     0
C1       C     0.75         0.19697      0.666667     0
C2       C     0.78125      0.242425     0.666667     0
C3       C     0.75         0.257575     0.666667     0
C4       C     0.78125      0.212121     0.666667     0
C1       C     0.75         0.287879     0            0
C2       C     0.78125      0.333334     0            0
C3       C     0.75         0.348485     0            0
C4       C     0.78125      0.30303      0            0
C1       C     0.75         0.287879     0.333333     0
C2       C     0.78125      0.333334     0.333333     0
C3       C     0.75         0.348485     0.333333     0
C4       C     0.78125      0.30303      0.333333     0
C1       C     0.75         0.287879     0.666667     0
C2       C     0.78125      0.333334     0.666667     0
C3       C     0.75         0.348485     0.666667     0
C4       C     0.78125      0.30303      0.666667     0
C1       C     0.75         0.378788     0            0
C2       C     0.78125      0.424243     0            0
C3       C     0.75         0.439394     0            0
C4       C     0.78125      0.393939     0            0
C1       C     0.75         0.378788     0.333333     0
C2       C     0.78125      0.424243     0.333333     0
C3       C     0.75         0.439394     0.333333     0
C4       C     0.78125      0.393939     0.333333     0
C1       C     0.75         0.378788     0.666667     0
C2       C     0.78125      0.424243     0.666667     0
C3       C     0.75         0.439394     0.666667     0
C4       C     0.78125      0.393939     0.666667     0
C1       C     0.75         0.469697     0            0
C2       C     0.78125      0.515152     0            0
C3       C     0.75         0.530303     0            0
C4       C     0.78125      0.484848     0            0
C1       C     0.75         0.469697     0.333333     0
C2       C     0.78125      0.515152     0.333333     0
C3       C     0.75         0.530303     0.333333     0
C4       C     0.78125      0.484848     0.333333     0
C1       C     0.75         0.469697     0.666667     0
C2       C     0.78125      0.515152     0.666667     0
C3       C     0.75         0.530303     0.666667     0
C4       C     0.78125      0.484848     0.666667     0
C1       C     0.75         0.560606     0            0
C2       C     0.78125      0.606061     0            0
C3       C     0.75         0.621212     0            0
C4       C     0.78125      0.575757     0            0
C1       C     0.75         0.560606     0.333333     0
C2       C     0.78125      0.606061     0.333333     0
C3       C     0.75         0.621212     0.333333     0
C4       C     0.78125      0.575757     0.333333     0
C1       C     0.75         0.560606     0.666667     0
C2       C     0.78125      0.606061     0.666667     0
C3       C     0.75         0.621212     0.666667     0
C4       C     0.78125      0.575757     0.666667     0
C1       C     0.75         0.651515     0            0
C2       C     0.78125      0.69697      0            0
C3       C     0.75         0.712121     0            0
C4       C     0.78125      0.666666     0            0
C1       C     0.75         0.651515     0.333333     0
C2       C     0.78125      0.69697      0.333333     0
C3       C     0.75         0.712121     0.333333     0
C4       C     0.78125      0.666666     0.333333     0
C1       C     0.75         0.651515     0.666667     0
C2       C     0.78125      0.69697      0.666667     0
C3       C     0.75         0.712121     0.666667     0
C4       C     0.78125      0.666666     0.666667     0
C1       C     0.75         0.742425     0            0
C2       C     0.78125      0.787879     0            0
C3       C     0.75         0.80303      0            0
C4       C     0.78125      0.757575     0            0
C1       C     0.75         0.742425     0.333333     0
C2       C     0.78125      0.787879     0.333333     0
C3       C     0.75         0.80303      0.333333     0
C4       C     0.78125      0.757575     0.333333     0
C1       C     0.75         0.742425     0.666667     0
C2       C     0.78125      0.787879     0.666667     0
C3       C     0.75         0.80303      0.666667     0
C4       C     0.78125      0.757575     0.666667     0
C1       C     0.75         0.833334     0            0
C2       C     0.78125      0.878788     0            0
C3       C     0.75         0.893939     0            0
C4       C     0.78125      0.848485     0            0
C1       C     0.75         0.833334     0.333333     0
C2       C     0.78125      0.878788     0.333333     0
C3       C     0.75         0.893939     0.333333     0
C4       C     0.78125      0.848485     0.333333     0
C1       C     0.75         0.833334     0.666667     0
C2       C     0.78125      0.878788     0.666667     0
C3       C     0.75         0.893939     0.666667     0
C4       C     0.78125      0.848485     0.666667     0
C1       C     0.75         0.924243     0            0
C2       C     0.78125      0.969697     0            0
C3       C     0.75         0.984848     0            0
C4       C     0.78125      0.939394     0            0
C1       C     0.75         0.924243     0.333333     0
C2       C     0.78125      0.969697     0.333333     0
C3       C     0.75         0.984848     0.333333     0
C4       C     0.78125      0.939394     0.333333     0
C1       C     0.75         0.924243     0.666667     0
C2       C     0.78125      0.969697     0.666667     0
C3       C     0.75         0.984848     0.666667     0
C4       C     0.78125      0.939394     0.666667     0
C1       C     0.8125       0.0151518    0            0
C2       C     0.84375      0.0606064    0            0
C3       C     0.8125       0.0757573    0            0
C4       C     0.84375      0.0303027    0            0
C1       C     0.8125       0.0151518    0.333333     0
C2       C     0.84375      0.0606064    0.333333     0
C3       C     0.8125       0.0757573    0.333333     0
C4       C     0.84375      0.0303027    0.333333     0
C1       C     0.8125       0.0151518    0.666667     0
C2       C     0.84375      0.0606064    0.666667     0
C3       C     0.8125       0.0757573    0.666667     0
C4       C     0.84375      0.0303027    0.666667     0
C1       C     0.8125       0.106061     0            0
C2       C     0.84375      0.151515     0            0
C3       C     0.8125       0.166666     0            0
C4       C     0.84375      0.121212     0            0
C1       C     0.8125       0.106061     0.333333     0
C2       C     0.84375      0.151515     0.333333     0
C3       C     0.8125       0.166666     0.333333     0
C4       C     0.84375      0.121212     0.333333     0
C1       C     0.8125       0.106061     0.666667     0
C2       C     0.84375      0.151515     0.666667     0
C3       C     0.8125       0.166666     0.666667     0
C4       C     0.84375      0.121212     0.666667     0
C1       C     0.8125       0.19697      0            0
C2       C     0.84375      0.242425     0            0
C3       C     0.8125       0.257575     0            0
C4       C     0.84375      0.212121     0            0
C1       C     0.8125       0.19697      0.333333     0
C2       C     0.84375      0.242425     0.333333     0
C3       C     0.8125       0.257575     0.333333     0
C4       C     0.84375      0.212121     0.333333     0
C1       C     0.8125       0.19697      0.666667     0
C2       C     0.84375      0.242425     0.666667     0
C3       C     0.8125       0.257575     0.666667     0
C4       C     0.84375      0.212121     0.666667     0
C1       C     0.8125       0.287879     0            0
C2       C     0.84375      0.333334     0            0
C3       C     0.8125       0.348485     0            0
C4       C     0.84375      0.30303      0            0
C1       C     0.8125       0.287879     0.333333     0
C2       C     0.84375      0.333334     0.333333     0
C3       C     0.8125       0.348485     0.333333     0
C4       C     0.84375      0.30303      0.333333     0
C1       C     0.8125       0.287879     0.666667     0
C2       C     0.84375      0.333334     0.666667     0
C3       C     0.8125       0.348485     0.666667     0
C4       C     0.84375      0.30303      0.666667     0
C1       C     0.8125       0.378788     0            0
C2       C     0.84375      0.424243     0            0
C3       C     0.8125       0.439394     0            0
C4       C     0.84375      0.393939     0            0
C1       C     0.8125       0.378788     0.333333     0
C2       C     0.84375      0.424243     0.333333     0
C3       C     0.8125       0.439394     0.333333     0
C4       C     0.84375      0.393939     0.333333     0
C1       C     0.8125       0.378788     0.666667     0
C2       C     0.84375      0.424243     0.666667     0
C3       C     0.8125       0.439394     0.666667     0
C4       C     0.84375      0.393939     0.666667     0
C1       C     0.8125       0.469697     0            0
C2       C     0.84375      0.515152     0            0
C3       C     0.8125       0.530303     0            0
C4       C     0.84375      0.484848     0            0
C1       C     0.8125       0.469697     0.333333     0
C2       C     0.84375      0.515152     0.333333     0
C3       C     0.8125       0.530303     0.333333     0
C4       C     0.84375      0.484848     0.333333     0
C1       C     0.8125       0.469697     0.666667     0
C2       C     0.84375      0.515152     0.666667     0
C3       C     0.8125       0.530303     0.666667     0
C4       C     0.84375      0.484848     0.666667     0
C1       C     0.8125       0.560606     0            0
C2       C     0.84375      0.606061     0            0
C3       C     0.8125       0.621212     0            0
C4       C     0.84375      0.575757     0            0
C1       C     0.8125       0.560606     0.333333     0
C2       C     0.84375      0.606061     0.333333     0
C3       C     0.8125       0.621212     0.333333     0
C4       C     0.84375      0.575757     0.333333     0
C1       C     0.8125       0.560606     0.666667     0
C2       C     0.84375      0.606061     0.666667     0
C3       C     0.8125       0.621212     0.666667     0
C4       C     0.84375      0.575757     0.666667     0
C1       C     0.8125       0.651515     0            0
C2       C     0.84375      0.69697      0            0
C3       C     0.8125       0.712121     0            0
C4       C     0.84375      0.666666     0            0
C1       C     0.8125       0.651515     0.333333     0
C2       C     0.84375      0.69697      0.333333     0
C3       C     0.8125       0.712121     0.333333     0
C4       C     0.84375      0.666666     0.333333     0
C1       C     0.8125       0.651515     0.666667     0
C2       C     0.84375      0.69697      0.666667     0
C3       C     0.8125       0.712121     0.666667     0
C4       C     0.84375      0.666666     0.666667     0
C1       C     0.8125       0.742425     0            0
C2       C     0.84375      0.787879     0            0
C3       C     0.8125       0.80303      0            0
C4       C     0.84375      0.757575     0            0
C1       C     0.8125       0.742425     0.333333     0
C2       C     0.84375      0.787879     0.333333     0
C3       C     0.8125       0.80303      0.333333     0
C4       C     0.84375      0.757575     0.333333     0
C1       C     0.8125       0.742425     0.666667     0
C2       C     0.84375      0.787879     0.666667     0
C3       C     0.8125       0.80303      0.666667     0
C4       C     0.84375      0.757575     0.666667     0
C1       C     0.8125       0.833334     0            0
C2       C     0.84375      0.878788     0            0
C3       C     0.8125       0.893939     0            0
C4       C     0.84375      0.848485     0            0
C1       C     0.8125       0.833334     0.333333     0
C2       C     0.84375      0.878788     0.333333     0
C3       C     0.8125       0.893939     0.333333     0
C4       C     0.84375      0.848485     0.333333     0
C1       C     0.8125       0.833334     0.666667     0
C2       C     0.84375      0.878788     0.666667     0
C3       C     0.8125       0.893939     0.666667     0
C4       C     0.84375      0.848485     0.666667     0
C1       C     0.8125       0.924243     0            0
C2       C     0.84375      0.969697     0            0
C3       C     0.8125       0.984848     0            0
C4       C     0.84375      0.939394     0            0
C1       C     0.8125       0.924243     0.333333     0
C2       C     0.84375      0.969697     0.333333     0
C3       C     0.8125       0.984848     0.333333     0
C4       C     0.84375      0.939394     0.333333     0
C1       C     0.8125       0.924243     0.666667     0
C2       C     0.84375      0.969697     0.666667     0
C3       C     0.8125       0.984848     0.666667     0
C4       C     0.84375      0.939394     0.666667     0
C1       C     0.875        0.0151518    0            0
C2       C     0.90625      0.0606064    0            0
C3       C     0.875        0.0757573    0            0
C4       C     0.90625      0.0303027    0            0
C1       C     0.875        0.0151518    0.333333     0
C2       C     0.90625      0.0606064    0.333333     0
C3       C     0.875        0.0757573    0.333333     0
C4       C     0.90625      0.0303027    0.333333     0
C1       C     0.875        0.0151518    0.666667     0
C2       C     0.90625      0.0606064    0.666667     0
C3       C     0.875        0.0757573    0.666667     0
C4       C     0.90625      0.0303027    0.666667     0
C1       C     0.875        0.106061     0            0
C2       C     0.90625      0.151515     0            0
C3       C     0.875        0.166666     0            0
C4       C     0.90625      0.121212     0            0
C1       C     0.875        0.106061     0.333333     0
C2       C     0.90625      0.151515     0.333333     0
C3       C     0.875        0.166666     0.333333     0
C4       C     0.90625      0.121212     0.333333     0
C1       C     0.875        0.106061     0.666667     0
C2       C     0.90625      0.151515     0.666667     0
C3       C     0.875        0.166666     0.666667     0
C4       C     0.90625      0.121212     0.666667     0
C1       C     0.875        0.19697      0            0
C2       C     0.90625      0.242425     0            0
C3       C     0.875        0.257575     0            0
C4       C     0.90625      0.212121     0            0
C1       C     0.875        0.19697      0.333333     0
C2       C     0.90625      0.242425     0.333333     0
C3       C     0.875        0.257575     0.333333     0
C4       C     0.90625      0.212121     0.333333     0
C1       C     0.875        0.19697      0.666667     0
C2       C     0.90625      0.242425     0.666667     0
C3       C     0.875        0.257575     0.666667     0
C4       C     0.90625      0.212121     0.666667     0
C1       C     0.875        0.287879     0            0
C2       C     0.90625      0.333334     0            0
C3       C     0.875        0.348485     0            0
C4       C     0.90625      0.30303      0            0
C1       C     0.875        0.287879     0.333333     0
C2       C     0.90625      0.333334     0.333333     0
C3       C     0.875        0.348485     0.333333     0
C4       C     0.90625      0.30303      0.333333     0
C1       C     0.875        0.287879     0.666667     0
C2       C     0.90625      0.333334     0.666667     0
C3       C     0.875        0.348485     0.666667     0
C4       C     0.90625      0.30303      0.666667     0
C1       C     0.875        0.378788     0            0
C2       C     0.90625      0.424243     0            0
C3       C     0.875        0.439394     0            0
C4       C     0.90625      0.393939     0            0
C1       C     0.875        0.378788     0.333333     0
C2       C     0.90625      0.424243     0.333333     0
C3       C     0.875        0.439394     0.333333     0
C4       C     0.90625      0.393939     0.333333     0
C1       C     0.875        0.378788     0.666667     0
C2       C     0.90625      0.424243     0.666667     0
C3       C     0.875        0.439394     0.666667     0
C4       C     0.90625      0.393939     0.666667     0
C1       C     0.875        0.469697     0            0
C2       C     0.90625      0.515152     0            0
C3       C     0.875        0.530303     0            0
C4       C     0.90625      0.484848     0            0
C1       C     0.875        0.469697     0.333333     0
C2       C     0.90625      0.515152     0.333333     0
C3       C     0.875        0.530303     0.333333     0
C4       C     0.90625      0.484848     0.333333     0
C1       C     0.875        0.469697     0.666667     0
C2       C     0.90625      0.515152     0.666667     0
C3       C     0.875        0.530303     0.666667     0
C4       C     0.90625      0.484848     0.666667     0
C1       C     0.875        0.560606     0            0
C2       C     0.90625      0.606061     0            0
C3       C     0.875        0.621212     0            0
C4       C     0.90625      0.575757     0            0
C1       C     0.875        0.560606     0.333333     0
C2       C     0.90625      0.606061     0.333333     0
C3       C     0.875        0.621212     0.333333     0
C4       C     0.90625      0.575757     0.333333     0
C1       C     0.875        0.560606     0.666667     0
C2       C     0.90625      0.606061     0.666667     0
C3       C     0.875        0.621212     0.666667     0
C4       C     0.90625      0.575757     0.666667     0
C1       C     0.875        0.651515     0            0
C2       C     0.90625      0.69697      0            0
C3       C     0.875        0.712121     0            0
C4       C     0.90625      0.666666     0            0
C1       C     0.875        0.651515     0.333333     0
C2       C     0.90625      0.69697      0.333333     0
C3       C     0.875        0.712121     0.333333     0
C4       C     0.90625      0.666666     0.333333     0
C1       C     0.875        0.651515     0.666667     0
C2       C     0.90625      0.69697      0.666667     0
C3       C     0.875        0.712121     0.666667     0
C4       C     0.90625      0.666666     0.666667     0
C1       C     0.875        0.742425     0            0
C2       C     0.90625      0.787879     0            0
C3       C     0.875        0.80303      0            0
C4       C     0.90625      0.757575     0            0
C1       C     0.875        0.742425     0.333333     0
C2       C     0.90625      0.787879     0.333333     0
C3       C     0.875        0.80303      0.333333     0
C4       C     0.90625      0.757575     0.333333     0
C1       C     0.875        0.742425     0.666667     0
C2       C     0.90625      0.787879     0.666667     0
C3       C     0.875        0.80303      0.666667     0
C4       C     0.90625      0.757575     0.666667     0
C1       C     0.875        0.833334     0            0
C2       C     0.90625      0.878788     0            0
C3       C     0.875        0.893939     0            0
C4       C     0.90625      0.848485     0            0
C1       C     0.875        0.833334     0.333333     0
C2       C     0.90625      0.878788     0.333333     0
C3       C     0.875        0.893939     0.333333     0
C4       C     0.90625      0.848485     0.333333     0
C1       C     0.875        0.833334     0.666667     0
C2       C     0.90625      0.878788     0.666667     0
C3       C     0.875        0.893939     0.666667     0
C4       C     0.90625      0.848485     0.666667     0
C1       C     0.875        0.924243     0            0
C2       C     0.90625      0.969697     0            0
C3       C     0.875        0.984848     0            0
C4       C     0.90625      0.939394     0            0
C1       C     0.875        0.924243     0.333333     0
C2       C     0.90625      0.969697     0.333333     0
C3       C     0.875        0.984848     0.333333     0
C4       C     0.90625      0.939394     0.333333     0
C1       C     0.875        0.924243     0.666667     0
C2       C     0.90625      0.969697     0.666667     0
C3       C     0.875        0.984848     0.666667     0
C4       C     0.90625      0.939394     0.666667     0
C1       C     0.9375       0.0151518    0            0
C2       C     0.96875      0.0606064    0            0
C3       C     0.9375       0.0757573    0            0
C4       C     0.96875      0.0303027    0            0
C1       C     0.9375       0.0151518    0.333333     0
C2       C     0.96875      0.0606064    0.333333     0
C3       C     0.9375       0.0757573    0.333333     0
C4       C     0.96875      0.0303027    0.333333     0
C1       C     0.9375       0.0151518    0.666667     0
C2       C     0.96875      0.0606064    0.666667     0
C3       C     0.9375       0.0757573    0.666667     0
C4       C     0.96875      0.0303027    0.666667     0
C1       C     0.9375       0.106061     0            0
C2       C     0.96875      0.151515     0            0
C3       C     0.9375       0.166666     0            0
C4       C     0.96875      0.121212     0            0
C1       C     0.9375       0.106061     0.333333     0
C2       C     0.96875      0.151515     0.333333     0
C3       C     0.9375       0.166666     0.333333     0
C4       C     0.96875      0.121212     0.333333     0
C1       C     0.9375       0.106061     0.666667     0
C2       C     0.96875      0.151515     0.666667     0
C3       C     0.9375       0.166666     0.666667     0
C4       C     0.96875      0.121212     0.666667     0
C1       C     0.9375       0.19697      0            0
C2       C     0.96875      0.242425     0            0
C3       C     0.9375       0.257575     0            0
C4       C     0.96875      0.212121     0            0
C1       C     0.9375       0.19697      0.333333     0
C2       C     0.96875      0.242425     0.333333     0
C3       C     0.9375       0.257575     0.333333     0
C4       C     0.96875      0.212121     0.333333     0
C1       C     0.9375       0.19697      0.666667     0
C2       C     0.96875      0.242425     0.666667     0
C3       C     0.9375       0.257575     0.666667     0
C4       C     0.96875      0.212121     0.666667     0
C1       C     0.9375       0.287879     0            0
C2       C     0.96875      0.333334     0            0
C3       C     0.9375       0.348485     0            0
C4       C     0.96875      0.30303      0            0
C1       C     0.9375       0.287879     0.333333     0
C2       C     0.96875      0.333334     0.333333     0
C3       C     0.9375       0.348485     0.333333     0
C4       C     0.96875      0.30303      0.333333     0
C1       C     0.9375       0.287879     0.666667     0
C2       C     0.96875      0.333334     0.666667     0
C3       C     0.9375       0.348485     0.666667     0
C4       C     0.96875      0.30303      0.666667     0
C1       C     0.9375       0.378788     0            0
C2       C     0.96875      0.424243     0            0
C3       C     0.9375       0.439394     0            0
C4       C     0.96875      0.393939     0            0
C1       C     0.9375       0.378788     0.333333     0
C2       C     0.96875      0.424243     0.333333     0
C3       C     0.9375       0.439394     0.333333     0
C4       C     0.96875      0.393939     0.333333     0
C1       C     0.9375       0.378788     0.666667     0
C2       C     0.96875      0.424243     0.666667     0
C3       C     0.9375       0.439394     0.666667     0
C4       C     0.96875      0.393939     0.666667     0
C1       C     0.9375       0.469697     0            0
C2       C     0.96875      0.515152     0            0
C3       C     0.9375       0.530303     0            0
C4       C     0.96875      0.484848     0            0
C1       C     0.9375       0.469697     0.333333     0
C2       C     0.96875      0.515152     0.333333     0
C3       C     0.9375       0.530303     0.333333     0
C4       C     0.96875      0.484848     0.333333     0
C1       C     0.9375       0.469697     0.666667     0
C2       C     0.96875      0.515152     0.666667     0
C3       C     0.9375       0.530303     0.666667     0
C4       C     0.96875      0.484848     0.666667     0
C1       C     0.9375       0.560606     0            0
C2       C     0.96875      0.606061     0            0
C3       C     0.9375       0.621212     0            0
C4       C     0.96875      0.575757     0            0
C1       C     0.9375       0.560606     0.333333     0
C2       C     0.96875      0.606061     0.333333     0
C3       C     0.9375       0.621212     0.333333     0
C4       C     0.96875      0.575757     0.333333     0
C1       C     0.9375       0.560606     0.666667     0
C2       C     0.96875      0.606061     0.666667     0
C3       C     0.9375       0.621212     0.666667     0
C4       C     0.96875      0.575757     0.666667     0
C1       C     0.9375       0.651515     0            0
C2       C     0.96875      0.69697      0            0
C3       C     0.9375       0.712121     0            0
C4       C     0.96875      0.666666     0            0
C1       C     0.9375       0.651515     0.333333     0
C2       C     0.96875      0.69697      0.333333     0
C3       C     0.9375       0.712121     0.333333     0
C4       C     0.96875      0.666666     0.333333     0
C1       C     0.9375       0.651515     0.666667     0
C2       C     0.96875      0.69697      0.666667     0
C3       C     0.9375       0.712121     0.666667     0
C4       C     0.96875      0.666666     0.666667     0
C1       C     0.9375       0.742425     0            0
C2       C     0.96875      0.787879     0            0
C3       C     0.9375       0.80303      0            0
C4       C     0.96875      0.757575     0            0
C1       C     0.9375       0.742425     0.333333     0
C2       C     0.96875      0.787879     0.333333     0
C3       C     0.9375       0.80303      0.333333     0
C4       C     0.96875      0.757575     0.333333     0
C1       C     0.9375       0.742425     0.666667     0
C2       C     0.96875      0.787879     0.666667     0
C3       C     0.9375       0.80303      0.666667     0
C4       C     0.96875      0.757575     0.666667     0
C1       C     0.9375       0.833334     0            0
C2       C     0.96875      0.878788     0            0
C3       C     0.9375       0.893939     0            0
C4       C     0.96875      0.848485     0            0
C1       C     0.9375       0.833334     0.333333     0
C2       C     0.96875      0.878788     0.333333     0
C3       C     0.9375       0.893939     0.333333     0
C4       C     0.96875      0.848485     0.333333     0
C1       C     0.9375       0.833334     0.666667     0
C2       C     0.96875      0.878788     0.666667     0
C3       C     0.9375       0.893939     0.666667     0
C4       C     0.96875      0.848485     0.666667     0
C1       C     0.9375       0.924243     0            0
C2       C     0.96875      0.969697     0            0
C3       C     0.9375       0.984848     0            0
C4       C     0.96875      0.939394     0            0
C1       C     0.9375       0.924243     0.333333     0
C2       C     0.96875      0.969697     0.333333     0
C3       C     0.9375       0.984848     0.333333     0
C4       C     0.96875      0.939394     0.333333     0
C1       C     0.9375       0.924243     0.666667     0
C2       C     0.96875      0.969697     0.666667     0
C3       C     0.9375       0.984848     0.666667     0
C4       C     0.96875      0.939394     0.666667     0
C1       C     0            0            0.0151518    0
C2       C     0.03125      0            0.0606064    0
C3       C     0            0            0.0757573    0
C4       C     0.03125      0            0.0303027    0
C1       C     0            0            0.106061     0
C2       C     0.03125      0            0.151515     0
C3       C     0            0            0.166666     0
C4       C     0.03125      0            0.121212     0
C1       C     0            0            0.19697      0
C2       C     0.03125      0            0.242425     0
C3       C     0            0            0.257575     0
C4       C     0.03125      0            0.212121     0
C1       C     0            0            0.287879     0
C2       C     0.03125      0            0.333334     0
C3       C     0            0            0.348485     0
C4       C     0.03125      0            0.30303      0
C1       C     0            0            0.378788     0
C2       C     0.03125      0            0.424243     0
C3       C     0            0            0.439394     0
C4       C     0.03125      0            0.393939     0
C1       C     0            0            0.469697     0
C2       C     0.03125      0            0.515152     0
C3       C     0            0            0.530303     0
C4       C     0.03125      0            0.484848     0
C1       C     0            0            0.560606     0
C2       C     0.03125      0            0.606061     0
C3       C     0            0            0.621212     0
C4       C     0.03125      0            0.575757     0
C1       C     0            0            0.651515     0
C2       C     0.03125      0            0.69697      0
C3       C     0            0            0.712121     0
C4       C     0.03125      0            0.666666     0
C1       C     0            0            0.742425     0
C2       C     0.03125      0            0.787879     0
C3       C     0            0            0.80303      0
C4       C     0.03125      0            0.757575     0
C1       C     0            0            0.833334     0
C2       C     0.03125      0            0.878788     0
C3       C     0            0            0.893939     0
C4       C     0.03125      0            0.848485     0
C1       C     0            0            0.924243     0
C2       C     0.03125      0            0.969697     0
C3       C     0            0            0.984848     0
C4       C     0.03125      0            0.939394     0
C1       C     0            0.333333     0.0151518    0
C2       C     0.03125      0.333333     0.0606064    0
C3       C     0            0.333333     0.0757573    0
C4       C     0.03125      0.333333     0.0303027    0
C1       C     0            0.333333     0.106061     0
C2       C     0.03125      0.333333     0.151515     0
C3       C     0            0.333333     0.166666     0
C4       C     0.03125      0.333333     0.121212     0
C1       C     0            0.333333     0.19697      0
C2       C     0.03125      0.333333     0.242425     0
C3       C     0            0.333333     0.257575     0
C4       C     0.03125      0.333333     0.212121     0
C1       C     0            0.333333     0.287879     0
C2       C     0.03125      0.333333     0.333334     0
C3       C     0            0.333333     0.348485     0
C4       C     0.03125      0.333333     0.30303      0
C1       C     0            0.333333     0.378788     0
C2       C     0.03125      0.333333     0.424243     0
C3       C     0            0.333333     0.439394     0
C4       C     0.03125      0.333333     0.393939     0
C1       C     0            0.333333     0.469697     0
C2       C     0.03125      0.333333     0.515152     0
C3       C     0            0.333333     0.530303     0
C4       C     0.03125      0.333333     0.484848     0
C1       C     0            0.333333     0.560606     0
C2       C     0.03125      0.333333     0.606061     0
C3       C     0            0.333333     0.621212     0
C4       C     0.03125      0.333333     0.575757     0
C1       C     0            0.333333     0.651515     0
C2       C     0.03125      0.333333     0.69697      0
C3       C     0            0.333333     0.712121     0
C4       C     0.03125      0.333333     0.666666     0
C1       C     0            0.333333     0.742425     0
C2       C     0.03125      0.333333     0.787879     0
C3       C     0            0.333333     0.80303      0
C4       C     0.03125      0.333333     0.757575     0
C1       C     0            0.333333     0.833334     0
C2       C     0.03125      0.333333     0.878788     0
C3       C     0            0.333333     0.893939     0
C4       C     0.03125      0.333333     0.848485     0
C1       C     0            0.333333     0.924243     0
C2       C     0.03125      0.333333     0.969697     0
C3       C     0            0.333333     0.984848     0
C4       C     0.03125      0.333333     0.939394     0
C1       C     0            0.666667     0.0151518    0
C2       C     0.03125      0.666667     0.0606064    0
C3       C     0            0.666667     0.0757573    0
C4       C     0.03125      0.666667     0.0303027    0
C1       C     0            0.666667     0.106061     0
C2       C     0.03125      0.666667     0.151515     0
C3       C     0            0.666667     0.166666     0
C4       C     0.03125      0.666667     0.121212     0
C1       C     0            0.666667     0.19697      0
C2       C     0.03125      0.666667     0.242425     0
C3       C     0            0.666667     0.257575     0
C4       C     0.03125      0.666667     0.212121     0
C1       C     0            0.666667     0.287879     0
C2       C     0.03125      0.666667     0.333334     0
C3       C     0            0.666667     0.348485     0
C4       C     0.03125      0.666667     0.30303      0
C1       C     0            0.666667     0.378788     0
C2       C     0.03125      0.666667     0.424243     0
C3       C     0            0.666667     0.439394     0
C4       C     0.03125      0.666667     0.393939     0
C1       C     0            0.666667     0.469697     0
C2       C     0.03125      0.666667     0.515152     0
C3       C     0            0.666667     0.530303     0
C4       C     0.03125      0.666667     0.484848     0
C1       C     0            0.666667     0.560606     0
C2       C     0.03125      0.666667     0.606061     0
C3       C     0            0.666667     0.621212     0
C4       C     0.03125      0.666667     0.575757     0
C1       C     0            0.666667     0.651515     0
C2       C     0.03125      0.666667     0.69697      0
C3       C     0            0.666667     0.712121     0
C4       C     0.03125      0.666667     0.666666     0
C1       C     0            0.666667     0.742425     0
C2       C     0.03125      0.666667     0.787879     0
C3       C     0            0.666667     0.80303      0
C4       C     0.03125      0.666667     0.757575     0
C1       C     0            0.666667     0.833334     0
C2       C     0.03125      0.666667     0.878788     0
C3       C     0            0.666667     0.893939     0
C4       C     0.03125      0.666667     0.848485     0
C1       C     0            0.666667     0.924243     0
C2       C     0.03125      0.666667     0.969697     0
C3       C     0            0.666667     0.984848     0
C4       C     0.03125      0.666667     0.939394     0
C1       C     0.0625       0            0.0151518    0
C2       C     0.09375      0            0.0606064    0
C3       C     0.0625       0            0.0757573    0
C4       C     0.09375      0            0.0303027    0
C1       C     0.0625       0            0.106061     0
C2       C     0.09375      0            0.151515     0
C3       C     0.0625       0            0.166666     0
C4       C     0.09375      0            0.121212     0
C1       C     0.0625       0            0.19697      0
C2       C     0.09375      0            0.242425     0
C3       C     0.0625       0            0.257575     0
C4       C     0.09375      0            0.212121     0
C1       C     0.0625       0            0.287879     0
C2       C     0.09375      0            0.333334     0
C3       C     0.0625       0            0.348485     0
C4       C     0.09375      0            0.30303      0
C1       C     0.0625       0            0.378788     0
C2       C     0.09375      0            0.424243     0
C3       C     0.0625       0            0.439394     0
C4       C     0.09375      0            0.393939     0
C1       C     0.0625       0            0.469697     0
C2       C     0.09375      0            0.515152     0
C3       C     0.0625       0            0.530303     0
C4       C     0.09375      0            0.484848     0
C1       C     0.0625       0            0.560606     0
C2       C     0.09375      0            0.606061     0
C3       C     0.0625       0            0.621212     0
C4       C     0.09375      0            0.575757     0
C1       C     0.0625       0            0.651515     0
C2       C     0.09375      0            0.69697      0
C3       C     0.0625       0            0.712121     0
C4       C     0.09375      0            0.666666     0
C1       C     0.0625       0            0.742425     0
C2       C     0.09375      0            0.787879     0
C3       C     0.0625       0            0.80303      0
C4       C     0.09375      0            0.757575     0
C1       C     0.0625       0            0.833334     0
C2       C     0.09375      0            0.878788     0
C3       C     0.0625       0            0.893939     0
C4       C     0.09375      0            0.848485     0
C1       C     0.0625       0            0.924243     0
C2       C     0.09375      0            0.969697     0
C3       C     0.0625       0            0.984848     0
C4       C     0.09375      0            0.939394     0
C1       C     0.0625       0.333333     0.0151518    0
C2       C     0.09375      0.333333     0.0606064    0
C3       C     0.0625       0.333333     0.0757573    0
C4       C     0.09375      0.333333     0.0303027    0
C1       C     0.0625       0.333333     0.106061     0
C2       C     0.09375      0.333333     0.151515     0
C3       C     0.0625       0.333333     0.166666     0
C4       C     0.09375      0.333333     0.121212     0
C1       C     0.0625       0.333333     0.19697      0
C2       C     0.09375      0.333333     0.242425     0
C3       C     0.0625       0.333333     0.257575     0
C4       C     0.09375      0.333333     0.212121     0
C1       C     0.0625       0.333333     0.287879     0
C2       C     0.09375      0.333333     0.333334     0
C3       C     0.0625       0.333333     0.348485     0
C4       C     0.09375      0.333333     0.30303      0
C1       C     0.0625       0.333333     0.378788     0
C2       C     0.09375      0.333333     0.424243     0
C3       C     0.0625       0.333333     0.439394     0
C4       C     0.09375      0.333333     0.393939     0
C1       C     0.0625       0.333333     0.469697     0
C2       C     0.09375      0.333333     0.515152     0
C3       C     0.0625       0.333333     0.530303     0
C4       C     0.09375      0.333333     0.484848     0
C1       C     0.0625       0.333333     0.560606     0
C2       C     0.09375      0.333333     0.606061     0
C3       C     0.0625       0.333333     0.621212     0
C4       C     0.09375      0.333333     0.575757     0
C1       C     0.0625       0.333333     0.651515     0
C2       C     0.09375      0.333333     0.69697      0
C3       C     0.0625       0.333333     0.712121     0
C4       C     0.09375      0.333333     0.666666     0
C1       C     0.0625       0.333333     0.742425     0
C2       C     0.09375      0.333333     0.787879     0
C3       C     0.0625       0.333333     0.80303      0
C4       C     0.09375      0.333333     0.757575     0
C1       C     0.0625       0.333333     0.833334     0
C2       C     0.09375      0.333333     0.878788     0
C3       C     0.0625       0.333333     0.893939     0
C4       C     0.09375      0.333333     0.848485     0
C1       C     0.0625       0.333333     0.924243     0
C2       C     0.09375      0.333333     0.969697     0
C3       C     0.0625       0.333333     0.984848     0
C4       C     0.09375      0.333333     0.939394     0
C1       C     0.0625       0.666667     0.0151518    0
C2       C     0.09375      0.666667     0.0606064    0
C3       C     0.0625       0.666667     0.0757573    0
C4       C     0.09375      0.666667     0.0303027    0
C1       C     0.0625       0.666667     0.106061     0
C2       C     0.09375      0.666667     0.151515     0
C3       C     0.0625       0.666667     0.166666     0
C4       C     0.09375      0.666667     0.121212     0
C1       C     0.0625       0.666667     0.19697      0
C2       C     0.09375      0.666667     0.242425     0
C3       C     0.0625       0.666667     0.257575     0
C4       C     0.09375      0.666667     0.212121     0
C1       C     0.0625       0.666667     0.287879     0
C2       C     0.09375      0.666667     0.333334     0
C3       C     0.0625       0.666667     0.348485     0
C4       C     0.09375      0.666667     0.30303      0
C1       C     0.0625       0.666667     0.378788     0
C2       C     0.09375      0.666667     0.424243     0
C3       C     0.0625       0.666667     0.439394     0
C4       C     0.09375      0.666667     0.393939     0
C1       C     0.0625       0.666667     0.469697     0
C2       C     0.09375      0.666667     0.515152     0
C3       C     0.0625       0.666667     0.530303     0
C4       C     0.09375      0.666667     0.484848     0
C1       C     0.0625       0.666667     0.560606     0
C2       C     0.09375      0.666667     0.606061     0
C3       C     0.0625       0.666667     0.621212     0
C4       C     0.09375      0.666667     0.575757     0
C1       C     0.0625       0.666667     0.651515     0
C2       C     0.09375      0.666667     0.69697      0
C3       C     0.0625       0.666667     0.712121     0
C4       C     0.09375      0.666667     0.666666     0
C1       C     0.0625       0.666667     0.742425     0
C2       C     0.09375      0.666667     0.787879     0
C3       C     0.0625       0.666667     0.80303      0
C4       C     0.09375      0.666667     0.757575     0
C1       C     0.0625       0.666667     0.833334     0
C2       C     0.09375      0.666667     0.878788     0
C3       C     0.0625       0.666667     0.893939     0
C4       C     0.09375      0.666667     0.848485     0
C1       C     0.0625       0.666667     0.924243     0
C2       C     0.09375      0.666667     0.969697     0
C3       C     0.0625       0.666667     0.984848     0
C4       C     0.09375      0.666667     0.939394     0
C1       C     0.125        0            0.0151518    0
C2       C     0.15625      0            0.0606064    0
C3       C     0.125        0            0.0757573    0
C4       C     0.15625      0            0.0303027    0
C1       C     0.125        0            0.106061     0
C2       C     0.15625      0            0.151515     0
C3       C     0.125        0            0.166666     0
C4       C     0.15625      0            0.121212     0
C1       C     0.125        0            0.19697      0
C2       C     0.15625      0            0.242425     0
C3       C     0.125        0            0.257575     0
C4       C     0.15625      0            0.212121     0
C1       C     0.125        0            0.287879     0
C2       C     0.15625      0            0.333334     0
C3       C     0.125        0            0.348485     0
C4       C     0.15625      0            0.30303      0
C1       C     0.125        0            0.378788     0
C2       C     0.15625      0            0.424243     0
C3       C     0.125        0            0.439394     0
C4       C     0.15625      0            0.393939     0
C1       C     0.125        0            0.469697     0
C2       C     0.15625      0            0.515152     0
C3       C     0.125        0            0.530303     0
C4       C     0.15625      0            0.484848     0
C1       C     0.125        0            0.560606     0
C2       C     0.15625      0            0.606061     0
C3       C     0.125        0            0.621212     0
C4       C     0.15625      0            0.575757     0
C1       C     0.125        0            0.651515     0
C2       C     0.15625      0            0.69697      0
C3       C     0.125        0            0.712121     0
C4       C     0.15625      0            0.666666     0
C1       C     0.125        0            0.742425     0
C2       C     0.15625      0            0.787879     0
C3       C     0.125        0            0.80303      0
C4       C     0.15625      0            0.757575     0
C1       C     0.125        0            0.833334     0
C2       C     0.15625      0            0.878788     0
C3       C     0.125        0            0.893939     0
C4       C     0.15625      0            0.848485     0
C1       C     0.125        0            0.924243     0
C2       C     0.15625      0            0.969697     0
C3       C     0.125        0            0.984848     0
C4       C     0.15625      0            0.939394     0
C1       C     0.125        0.333333     0.0151518    0
C2       C     0.15625      0.333333     0.0606064    0
C3       C     0.125        0.333333     0.0757573    0
C4       C     0.15625      0.333333     0.0303027    0
C1       C     0.125        0.333333     0.106061     0
C2       C     0.15625      0.333333     0.151515     0
C3       C     0.125        0.333333     0.166666     0
C4       C     0.15625      0.333333     0.121212     0
C1       C     0.125        0.333333     0.19697      0
C2       C     0.15625      0.333333     0.242425     0
C3       C     0.125        0.333333     0.257575     0
C4       C     0.15625      0.333333     0.212121     0
C1       C     0.125        0.333333     0.287879     0
C2       C     0.15625      0.333333     0.333334     0
C3       C     0.125        0.333333     0.348485     0
C4       C     0.15625      0.333333     0.30303      0
C1       C     0.125        0.333333     0.378788     0
C2       C     0.15625      0.333333     0.424243     0
C3       C     0.125        0.333333     0.439394     0
C4       C     0.15625      0.333333     0.393939     0
C1       C     0.125        0.333333     0.469697     0
C2       C     0.15625      0.333333     0.515152     0
C3       C     0.125        0.333333     0.530303     0
C4       C     0.15625      0.333333     0.484848     0
C1       C     0.125        0.333333     0.560606     0
C2       C     0.15625      0.333333     0.606061     0
C3       C     0.125        0.333333     0.621212     0
C4       C     0.15625      0.333333     0.575757     0
C1       C     0.125        0.333333     0.651515     0
C2       C     0.15625      0.333333     0.69697      0
C3       C     0.125        0.333333     0.712121     0
C4       C     0.15625      0.333333     0.666666     0
C1       C     0.125        0.333333     0.742425     0
C2       C     0.15625      0.333333     0.787879     0
C3       C     0.125        0.333333     0.80303      0
C4       C     0.15625      0.333333     0.757575     0
C1       C     0.125        0.333333     0.833334     0
C2       C     0.15625      0.333333     0.878788     0
C3       C     0.125        0.333333     0.893939     0
C4       C     0.15625      0.333333     0.848485     0
C1       C     0.125        0.333333     0.924243     0
C2       C     0.15625      0.333333     0.969697     0
C3       C     0.125        0.333333     0.984848     0
C4       C     0.15625      0.333333     0.939394     0
C1       C     0.125        0.666667     0.0151518    0
C2       C     0.15625      0.666667     0.0606064    0
C3       C     0.125        0.666667     0.0757573    0
C4       C     0.15625      0.666667     0.0303027    0
C1       C     0.125        0.666667     0.106061     0
C2       C     0.15625      0.666667     0.151515     0
C3       C     0.125        0.666667     0.166666     0
C4       C     0.15625      0.666667     0.121212     0
C1       C     0.125        0.666667     0.19697      0
C2       C     0.15625      0.666667     0.242425     0
C3       C     0.125        0.666667     0.257575     0
C4       C     0.15625      0.666667     0.212121     0
C1       C     0.125        0.666667     0.287879     0
C2       C     0.15625      0.666667     0.333334     0
C3       C     0.125        0.666667     0.348485     0
C4       C     0.15625      0.666667     0.30303      0
C1       C     0.125        0.666667     0.378788     0
C2       C     0.15625      0.666667     0.424243     0
C3       C     0.125        0.666667     0.439394     0
C4       C     0.15625      0.666667     0.393939     0
C1       C     0.125        0.666667     0.469697     0
C2       C     0.15625      0.666667     0.515152     0
C3       C     0.125        0.666667     0.530303     0
C4       C     0.15625      0.666667     0.484848     0
C1       C     0.125        0.666667     0.560606     0
C2       C     0.15625      0.666667     0.606061     0
C3       C     0.125        0.666667     0.621212     0
C4       C     0.15625      0.666667     0.575757     0
C1       C     0.125        0.666667     0.651515     0
C2       C     0.15625      0.666667     0.69697      0
C3       C     0.125        0.666667     0.712121     0
C4       C     0.15625      0.666667     0.666666     0
C1       C     0.125        0.666667     0.742425     0
C2       C     0.15625      0.666667     0.787879     0
C3       C     0.125        0.666667     0.80303      0
C4       C     0.15625      0.666667     0.757575     0
C1       C     0.125        0.666667     0.833334     0
C2       C     0.15625      0.666667     0.878788     0
C3       C     0.125        0.666667     0.893939     0
C4       C     0.15625      0.666667     0.848485     0
C1       C     0.125        0.666667     0.924243     0
C2       C     0.15625      0.666667     0.969697     0
C3       C     0.125        0.666667     0.984848     0
C4       C     0.15625      0.666667     0.939394     0
C1       C     0.1875       0            0.0151518    0
C2       C     0.21875      0            0.0606064    0
C3       C     0.1875       0            0.0757573    0
C4       C     0.21875      0            0.0303027    0
C1       C     0.1875       0            0.106061     0
C2       C     0.21875      0            0.151515     0
C3       C     0.1875       0            0.166666     0
C4       C     0.21875      0            0.121212     0
C1       C     0.1875       0            0.19697      0
C2       C     0.21875      0            0.242425     0
C3       C     0.1875       0            0.257575     0
C4       C     0.21875      0            0.212121     0
C1       C     0.1875       0            0.287879     0
C2       C     0.21875      0            0.333334     0
C3       C     0.1875       0            0.348485     0
C4       C     0.21875      0            0.30303      0
C1       C     0.1875       0            0.378788     0
C2       C     0.21875      0            0.424243     0
C3       C     0.1875       0            0.439394     0
C4       C     0.21875      0            0.393939     0
C1       C     0.1875       0            0.469697     0
C2       C     0.21875      0            0.515152     0
C3       C     0.1875       0            0.530303     0
C4       C     0.21875      0            0.484848     0
C1       C     0.1875       0            0.560606     0
C2       C     0.21875      0            0.606061     0
C3       C     0.1875       0            0.621212     0
C4       C     0.21875      0            0.575757     0
C1       C     0.1875       0            0.651515     0
C2       C     0.21875      0            0.69697      0
C3       C     0.1875       0            0.712121     0
C4       C     0.21875      0            0.666666     0
C1       C     0.1875       0            0.742425     0
C2       C     0.21875      0            0.787879     0
C3       C     0.1875       0            0.80303      0
C4       C     0.21875      0            0.757575     0
C1       C     0.1875       0            0.833334     0
C2       C     0.21875      0            0.878788     0
C3       C     0.1875       0            0.893939     0
C4       C     0.21875      0            0.848485     0
C1       C     0.1875       0            0.924243     0
C2       C     0.21875      0            0.969697     0
C3       C     0.1875       0            0.984848     0
C4       C     0.21875      0            0.939394     0
C1       C     0.1875       0.333333     0.0151518    0
C2       C     0.21875      0.333333     0.0606064    0
C3       C     0.1875       0.333333     0.0757573    0
C4       C     0.21875      0.333333     0.0303027    0
C1       C     0.1875       0.333333     0.106061     0
C2       C     0.21875      0.333333     0.151515     0
C3       C     0.1875       0.333333     0.166666     0
C4       C     0.21875      0.333333     0.121212     0
C1       C     0.1875       0.333333     0.19697      0
C2       C     0.21875      0.333333     0.242425     0
C3       C     0.1875       0.333333     0.257575     0
C4       C     0.21875      0.333333     0.212121     0
C1       C     0.1875       0.333333     0.287879     0
C2       C     0.21875      0.333333     0.333334     0
C3       C     0.1875       0.333333     0.348485     0
C4       C     0.21875      0.333333     0.30303      0
C1       C     0.1875       0.333333     0.378788     0
C2       C     0.21875      0.333333     0.424243     0
C3       C     0.1875       0.333333     0.439394     0
C4       C     0.21875      0.333333     0.393939     0
C1       C     0.1875       0.333333     0.469697     0
C2       C     0.21875      0.333333     0.515152     0
C3       C     0.1875       0.333333     0.530303     0
C4       C     0.21875      0.333333     0.484848     0
C1       C     0.1875       0.333333     0.560606     0
C2       C     0.21875      0.333333     0.606061     0
C3       C     0.1875       0.333333     0.621212     0
C4       C     0.21875      0.333333     0.575757     0
C1       C     0.1875       0.333333     0.651515     0
C2       C     0.21875      0.333333     0.69697      0
C3       C     0.1875       0.333333     0.712121     0
C4       C     0.21875      0.333333     0.666666     0
C1       C     0.1875       0.333333     0.742425     0
C2       C     0.21875      0.333333     0.787879     0
C3       C     0.1875       0.333333     0.80303      0
C4       C     0.21875      0.333333     0.757575     0
C1       C     0.1875       0.333333     0.833334     0
C2       C     0.21875      0.333333     0.878788     0
C3       C     0.1875       0.333333     0.893939     0
C4       C     0.21875      0.333333     0.848485     0
C1       C     0.1875       0.333333     0.924243     0
C2       C     0.21875      0.333333     0.969697     0
C3       C     0.1875       0.333333     0.984848     0
C4       C     0.21875      0.333333     0.939394     0
C1       C     0.1875       0.666667     0.0151518    0
C2       C     0.21875      0.666667     0.0606064    0
C3       C     0.1875       0.666667     0.0757573    0
C4       C     0.21875      0.666667     0.0303027    0
C1       C     0.1875       0.666667     0.106061     0
C2       C     0.21875      0.666667     0.151515     0
C3       C     0.1875       0.666667     0.166666     0
C4       C     0.21875      0.666667     0.121212     0
C1       C     0.1875       0.666667     0.19697      0
C2       C     0.21875      0.666667     0.242425     0
C3       C     0.1875       0.666667     0.257575     0
C4       C     0.21875      0.666667     0.212121     0
C1       C     0.1875       0.666667     0.287879     0
C2       C     0.21875      0.666667     0.333334     0
C3       C     0.1875       0.666667     0.348485     0
C4       C     0.21875      0.666667     0.30303      0
C1       C     0.1875       0.666667     0.378788     0
C2       C     0.21875      0.666667     0.424243     0
C3       C     0.1875       0.666667     0.439394     0
C4       C     0.21875      0.666667     0.393939     0
C1       C     0.1875       0.666667     0.469697     0
C2       C     0.21875      0.666667     0.515152     0
C3       C     0.1875       0.666667     0.530303     0
C4       C     0.21875      0.666667     0.484848     0
C1       C     0.1875       0.666667     0.560606     0
C2       C     0.21875      0.666667     0.606061     0
C3       C     0.1875       0.666667     0.621212     0
C4       C     0.21875      0.666667     0.575757     0
C1       C     0.1875       0.666667     0.651515     0
C2       C     0.21875      0.666667     0.69697      0
C3       C     0.1875       0.666667     0.712121     0
C4       C     0.21875      0.666667     0.666666     0
C1       C     0.1875       0.666667     0.742425     0
C2       C     0.21875      0.666667     0.787879     0
C3       C     0.1875       0.666667     0.80303      0
C4       C     0.21875      0.666667     0.757575     0
C1       C     0.1875       0.666667     0.833334     0
C2       C     0.21875      0.666667     0.878788     0
C3       C     0.1875       0.666667     0.893939     0
C4       C     0.21875      0.666667     0.848485     0
C1       C     0.1875       0.666667     0.924243     0
C2       C     0.21875      0.666667     0.969697     0
C3       C     0.1875       0.666667     0.984848     0
C4       C     0.21875      0.666667     0.939394     0
C1       C     0.25         0            0.0151518    0
C2       C     0.28125      0            0.0606064    0
C3       C     0.25         0            0.0757573    0
C4       C     0.28125      0            0.0303027    0
C1       C     0.25         0            0.106061     0
C2       C     0.28125      0            0.151515     0
C3       C     0.25         0            0.166666     0
C4       C     0.28125      0            0.121212     0
C1       C     0.25         0            0.19697      0
C2       C     0.28125      0            0.242425     0
C3       C     0.25         0            0.257575     0
C4       C     0.28125      0            0.212121     0
C1       C     0.25         0            0.287879     0
C2       C     0.28125      0            0.333334     0
C3       C     0.25         0            0.348485     0
C4       C     0.28125      0            0.30303      0
C1       C     0.25         0            0.378788     0
C2       C     0.28125      0            0.424243     0
C3       C     0.25         0            0.439394     0
C4       C     0.28125      0            0.393939     0
C1       C     0.25         0            0.469697     0
C2       C     0.28125      0            0.515152     0
C3       C     0.25         0            0.530303     0
C4       C     0.28125      0            0.484848     0
C1       C     0.25         0            0.560606     0
C2       C     0.28125      0            0.606061     0
C3       C     0.25         0            0.621212     0
C4       C     0.28125      0            0.575757     0
C1       C     0.25         0            0.651515     0
C2       C     0.28125      0            0.69697      0
C3       C     0.25         0            0.712121     0
C4       C     0.28125      0            0.666666     0
C1       C     0.25         0            0.742425     0
C2       C     0.28125      0            0.787879     0
C3       C     0.25         0            0.80303      0
C4       C     0.28125      0            0.757575     0
C1       C     0.25         0            0.833334     0
C2       C     0.28125      0            0.878788     0
C3       C     0.25         0            0.893939     0
C4       C     0.28125      0            0.848485     0
C1       C     0.25         0            0.924243     0
C2       C     0.28125      0            0.969697     0
C3       C     0.25         0            0.984848     0
C4       C     0.28125      0            0.939394     0
C1       C     0.25         0.333333     0.0151518    0
C2       C     0.28125      0.333333     0.0606064    0
C3       C     0.25         0.333333     0.0757573    0
C4       C     0.28125      0.333333     0.0303027    0
C1       C     0.25         0.333333     0.106061     0
C2       C     0.28125      0.333333     0.151515     0
C3       C     0.25         0.333333     0.166666     0
C4       C     0.28125      0.333333     0.121212     0
C1       C     0.25         0.333333     0.19697      0
C2       C     0.28125      0.333333     0.242425     0
C3       C     0.25         0.333333     0.257575     0
C4       C     0.28125      0.333333     0.212121     0
C1       C     0.25         0.333333     0.287879     0
C2       C     0.28125      0.333333     0.333334     0
C3       C     0.25         0.333333     0.348485     0
C4       C     0.28125      0.333333     0.30303      0
C1       C     0.25         0.333333     0.378788     0
C2       C     0.28125      0.333333     0.424243     0
C3       C     0.25         0.333333     0.439394     0
C4       C     0.28125      0.333333     0.393939     0
C1       C     0.25         0.333333     0.469697     0
C2       C     0.28125      0.333333     0.515152     0
C3       C     0.25         0.333333     0.530303     0
C4       C     0.28125      0.333333     0.484848     0
C1       C     0.25         0.333333     0.560606     0
C2       C     0.28125      0.333333     0.606061     0
C3       C     0.25         0.333333     0.621212     0
C4       C     0.28125      0.333333     0.575757     0
C1       C     0.25         0.333333     0.651515     0
C2       C     0.28125      0.333333     0.69697      0
C3       C     0.25         0.333333     0.712121     0
C4       C     0.28125      0.333333     0.666666     0
C1       C     0.25         0.333333     0.742425     0
C2       C     0.28125      0.333333     0.787879     0
C3       C     0.25         0.333333     0.80303      0
C4       C     0.28125      0.333333     0.757575     0
C1       C     0.25         0.333333     0.833334     0
C2       C     0.28125      0.333333     0.878788     0
C3       C     0.25         0.333333     0.893939     0
C4       C     0.28125      0.333333     0.848485     0
C1       C     0.25         0.333333     0.924243     0
C2       C     0.28125      0.333333     0.969697     0
C3       C     0.25         0.333333     0.984848     0
C4       C     0.28125      0.333333     0.939394     0
C1       C     0.25         0.666667     0.0151518    0
C2       C     0.28125      0.666667     0.0606064    0
C3       C     0.25         0.666667     0.0757573    0
C4       C     0.28125      0.666667     0.0303027    0
C1       C     0.25         0.666667     0.106061     0
C2       C     0.28125      0.666667     0.151515     0
C3       C     0.25         0.666667     0.166666     0
C4       C     0.28125      0.666667     0.121212     0
C1       C     0.25         0.666667     0.19697      0
C2       C     0.28125      0.666667     0.242425     0
C3       C     0.25         0.666667     0.257575     0
C4       C     0.28125      0.666667     0.212121     0
C1       C     0.25         0.666667     0.287879     0
C2       C     0.28125      0.666667     0.333334     0
C3       C     0.25         0.666667     0.348485     0
C4       C     0.28125      0.666667     0.30303      0
C1       C     0.25         0.666667     0.378788     0
C2       C     0.28125      0.666667     0.424243     0
C3       C     0.25         0.666667     0.439394     0
C4       C     0.28125      0.666667     0.393939     0
C1       C     0.25         0.666667     0.469697     0
C2       C     0.28125      0.666667     0.515152     0
C3       C     0.25         0.666667     0.530303     0
C4       C     0.28125      0.666667     0.484848     0
C1       C     0.25         0.666667     0.560606     0
C2       C     0.28125      0.666667     0.606061     0
C3       C     0.25         0.666667     0.621212     0
C4       C     0.28125      0.666667     0.575757     0
C1       C     0.25         0.666667     0.651515     0
C2       C     0.28125      0.666667     0.69697      0
C3       C     0.25         0.666667     0.712121     0
C4       C     0.28125      0.666667     0.666666     0
C1       C     0.25         0.666667     0.742425     0
C2       C     0.28125      0.666667     0.787879     0
C3       C     0.25         0.666667     0.80303      0
C4       C     0.28125      0.666667     0.757575     0
C1       C     0.25         0.666667     0.833334     0
C2       C     0.28125      0.666667     0.878788     0
C3       C     0.25         0.666667     0.893939     0
C4       C     0.28125      0.666667     0.848485     0
C1       C     0.25         0.666667     0.924243     0
C2       C     0.28125      0.666667     0.969697     0
C3       C     0.25         0.666667     0.984848     0
C4       C     0.28125      0.666667     0.939394     0
C1       C     0.3125       0            0.0151518    0
C2       C     0.34375      0            0.0606064    0
C3       C     0.3125       0            0.0757573    0
C4       C     0.34375      0            0.0303027    0
C1       C     0.3125       0            0.106061     0
C2       C     0.34375      0            0.151515     0
C3       C     0.3125       0            0.166666     0
C4       C     0.34375      0            0.121212     0
C1       C     0.3125       0            0.19697      0
C2       C     0.34375      0            0.242425     0
C3       C     0.3125       0            0.257575     0
C4       C     0.34375      0            0.212121     0
C1       C     0.3125       0            0.287879     0
C2       C     0.34375      0            0.333334     0
C3       C     0.3125       0            0.348485     0
C4       C     0.34375      0            0.30303      0
C1       C     0.3125       0            0.378788     0
C2       C     0.34375      0            0.424243     0
C3       C     0.3125       0            0.439394     0
C4       C     0.34375      0            0.393939     0
C1       C     0.3125       0            0.469697     0
C2       C     0.34375      0            0.515152     0
C3       C     0.3125       0            0.530303     0
C4       C     0.34375      0            0.484848     0
C1       C     0.3125       0            0.560606     0
C2       C     0.34375      0            0.606061     0
C3       C     0.3125       0            0.621212     0
C4       C     0.34375      0            0.575757     0
C1       C     0.3125       0            0.651515     0
C2       C     0.34375      0            0.69697      0
C3       C     0.3125       0            0.712121     0
C4       C     0.34375      0            0.666666     0
C1       C     0.3125       0            0.742425     0
C2       C     0.34375      0            0.787879     0
C3       C     0.3125       0            0.80303      0
C4       C     0.34375      0            0.757575     0
C1       C     0.3125       0            0.833334     0
C2       C     0.34375      0            0.878788     0
C3       C     0.3125       0            0.893939     0
C4       C     0.34375      0            0.848485     0
C1       C     0.3125       0            0.924243     0
C2       C     0.34375      0            0.969697     0
C3       C     0.3125       0            0.984848     0
C4       C     0.34375      0            0.939394     0
C1       C     0.3125       0.333333     0.0151518    0
C2       C     0.34375      0.333333     0.0606064    0
C3       C     0.3125       0.333333     0.0757573    0
C4       C     0.34375      0.333333     0.0303027    0
C1       C     0.3125       0.333333     0.106061     0
C2       C     0.34375      0.333333     0.151515     0
C3       C     0.3125       0.333333     0.166666     0
C4       C     0.34375      0.333333     0.121212     0
C1       C     0.3125       0.333333     0.19697      0
C2       C     0.34375      0.333333     0.242425     0
C3       C     0.3125       0.333333     0.257575     0
C4       C     0.34375      0.333333     0.212121     0
C1       C     0.3125       0.333333     0.287879     0
C2       C     0.34375      0.333333     0.333334     0
C3       C     0.3125       0.333333     0.348485     0
C4       C     0.34375      0.333333     0.30303      0
C1       C     0.3125       0.333333     0.378788     0
C2       C     0.34375      0.333333     0.424243     0
C3       C     0.3125       0.333333     0.439394     0
C4       C     0.34375      0.333333     0.393939     0
C1       C     0.3125       0.333333     0.469697     0
C2       C     0.34375      0.333333     0.515152     0
C3       C     0.3125       0.333333     0.530303     0
C4       C     0.34375      0.333333     0.484848     0
C1       C     0.3125       0.333333     0.560606     0
C2       C     0.34375      0.333333     0.606061     0
C3       C     0.3125       0.333333     0.621212     0
C4       C     0.34375      0.333333     0.575757     0
C1       C     0.3125       0.333333     0.651515     0
C2       C     0.34375      0.333333     0.69697      0
C3       C     0.3125       0.333333     0.712121     0
C4       C     0.34375      0.333333     0.666666     0
C1       C     0.3125       0.333333     0.742425     0
C2       C     0.34375      0.333333     0.787879     0
C3       C     0.3125       0.333333     0.80303      0
C4       C     0.34375      0.333333     0.757575     0
C1       C     0.3125       0.333333     0.833334     0
C2       C     0.34375      0.333333     0.878788     0
C3       C     0.3125       0.333333     0.893939     0
C4       C     0.34375      0.333333     0.848485     0
C1       C     0.3125       0.333333     0.924243     0
C2       C     0.34375      0.333333     0.969697     0
C3       C     0.3125       0.333333     0.984848     0
C4       C     0.34375      0.333333     0.939394     0
C1       C     0.3125       0.666667     0.0151518    0
C2       C     0.34375      0.666667     0.0606064    0
C3       C     0.3125       0.666667     0.0757573    0
C4       C     0.34375      0.666667     0.0303027    0
C1       C     0.3125       0.666667     0.106061     0
C2       C     0.34375      0.666667     0.151515     0
C3       C     0.3125       0.666667     0.166666     0
C4       C     0.34375      0.666667     0.121212     0
C1       C     0.3125       0.666667     0.19697      0
C2       C     0.34375      0.666667     0.242425     0
C3       C     0.3125       0.666667     0.257575     0
C4       C     0.34375      0.666667     0.212121     0
C1       C     0.3125       0.666667     0.287879     0
C2       C     0.34375      0.666667     0.333334     0
C3       C     0.3125       0.666667     0.348485     0
C4       C     0.34375      0.666667     0.30303      0
C1       C     0.3125       0.666667     0.378788     0
C2       C     0.34375      0.666667     0.424243     0
C3       C     0.3125       0.666667     0.439394     0
C4       C     0.34375      0.666667     0.393939     0
C1       C     0.3125       0.666667     0.469697     0
C2       C     0.34375      0.666667     0.515152     0
C3       C     0.3125       0.666667     0.530303     0
C4       C     0.34375      0.666667     0.484848     0
C1       C     0.3125       0.666667     0.560606     0
C2       C     0.34375      0.666667     0.606061     0
C3       C     0.3125       0.666667     0.621212     0
C4       C     0.34375      0.666667     0.575757     0
C1       C     0.3125       0.666667     0.651515     0
C2       C     0.34375      0.666667     0.69697      0
C3       C     0.3125       0.666667     0.712121     0
C4       C     0.34375      0.666667     0.666666     0
C1       C     0.3125       0.666667     0.742425     0
C2       C     0.34375      0.666667     0.787879     0
C3       C     0.3125       0.666667     0.80303      0
C4       C     0.34375      0.666667     0.757575     0
C1       C     0.3125       0.666667     0.833334     0
C2       C     0.34375      0.666667     0.878788     0
C3       C     0.3125       0.666667     0.893939     0
C4       C     0.34375      0.666667     0.848485     0
C1       C     0.3125       0.666667     0.924243     0
C2       C     0.34375      0.666667     0.969697     0
C3       C     0.3125       0.666667     0.984848     0
C4       C     0.34375      0.666667     0.939394     0
C1       C     0.375        0            0.0151518    0
C2       C     0.40625      0            0.0606064    0
C3       C     0.375        0            0.0757573    0
C4       C     0.40625      0            0.0303027    0
C1       C     0.375        0            0.106061     0
C2       C     0.40625      0            0.151515     0
C3       C     0.375        0            0.166666     0
C4       C     0.40625      0            0.121212     0
C1       C     0.375        0            0.19697      0
C2       C     0.40625      0            0.242425     0
C3       C     0.375        0            0.257575     0
C4       C     0.40625      0            0.212121     0
C1       C     0.375        0            0.287879     0
C2       C     0.40625      0            0.333334     0
C3       C     0.375        0            0.348485     0
C4       C     0.40625      0            0.30303      0
C1       C     0.375        0            0.378788     0
C2       C     0.40625      0            0.424243     0
C3       C     0.375        0            0.439394     0
C4       C     0.40625      0            0.393939     0
C1       C     0.375        0            0.469697     0
C2       C     0.40625      0            0.515152     0
C3       C     0.375        0            0.530303     0
C4       C     0.40625      0            0.484848     0
C1       C     0.375        0            0.560606     0
C2       C     0.40625      0            0.606061     0
C3       C     0.375        0            0.621212     0
C4       C     0.40625      0            0.575757     0
C1       C     0.375        0            0.651515     0
C2       C     0.40625      0            0.69697      0
C3       C     0.375        0            0.712121     0
C4       C     0.40625      0            0.666666     0
C1       C     0.375        0            0.742425     0
C2       C     0.40625      0            0.787879     0
C3       C     0.375        0            0.80303      0
C4       C     0.40625      0            0.757575     0
C1       C     0.375        0            0.833334     0
C2       C     0.40625      0            0.878788     0
C3       C     0.375        0            0.893939     0
C4       C     0.40625      0            0.848485     0
C1       C     0.375        0            0.924243     0
C2       C     0.40625      0            0.969697     0
C3       C     0.375        0            0.984848     0
C4       C     0.40625      0            0.939394     0
C1       C     0.375        0.333333     0.0151518    0
C2       C     0.40625      0.333333     0.0606064    0
C3       C     0.375        0.333333     0.0757573    0
C4       C     0.40625      0.333333     0.0303027    0
C1       C     0.375        0.333333     0.106061     0
C2       C     0.40625      0.333333     0.151515     0
C3       C     0.375        0.333333     0.166666     0
C4       C     0.40625      0.333333     0.121212     0
C1       C     0.375        0.333333     0.19697      0
C2       C     0.40625      0.333333     0.242425     0
C3       C     0.375        0.333333     0.257575     0
C4       C     0.40625      0.333333     0.212121     0
C1       C     0.375        0.333333     0.287879     0
C2       C     0.40625      0.333333     0.333334     0
C3       C     0.375        0.333333     0.348485     0
C4       C     0.40625      0.333333     0.30303      0
C1       C     0.375        0.333333     0.378788     0
C2       C     0.40625      0.333333     0.424243     0
C3       C     0.375        0.333333     0.439394     0
C4       C     0.40625      0.333333     0.393939     0
C1       C     0.375        0.333333     0.469697     0
C2       C     0.40625      0.333333     0.515152     0
C3       C     0.375        0.333333     0.530303     0
C4       C     0.40625      0.333333     0.484848     0
C1       C     0.375        0.333333     0.560606     0
C2       C     0.40625      0.333333     0.606061     0
C3       C     0.375        0.333333     0.621212     0
C4       C     0.40625      0.333333     0.575757     0
C1       C     0.375        0.333333     0.651515     0
C2       C     0.40625      0.333333     0.69697      0
C3       C     0.375        0.333333     0.712121     0
C4       C     0.40625      0.333333     0.666666     0
C1       C     0.375        0.333333     0.742425     0
C2       C     0.40625      0.333333     0.787879     0
C3       C     0.375        0.333333     0.80303      0
C4       C     0.40625      0.333333     0.757575     0
C1       C     0.375        0.333333     0.833334     0
C2       C     0.40625      0.333333     0.878788     0
C3       C     0.375        0.333333     0.893939     0
C4       C     0.40625      0.333333     0.848485     0
C1       C     0.375        0.333333     0.924243     0
C2       C     0.40625      0.333333     0.969697     0
C3       C     0.375        0.333333     0.984848     0
C4       C     0.40625      0.333333     0.939394     0
C1       C     0.375        0.666667     0.0151518    0
C2       C     0.40625      0.666667     0.0606064    0
C3       C     0.375        0.666667     0.0757573    0
C4       C     0.40625      0.666667     0.0303027    0
C1       C     0.375        0.666667     0.106061     0
C2       C     0.40625      0.666667     0.151515     0
C3       C     0.375        0.666667     0.166666     0
C4       C     0.40625      0.666667     0.121212     0
C1       C     0.375        0.666667     0.19697      0
C2       C     0.40625      0.666667     0.242425     0
C3       C     0.375        0.666667     0.257575     0
C4       C     0.40625      0.666667     0.212121     0
C1       C     0.375        0.666667     0.287879     0
C2       C     0.40625      0.666667     0.333334     0
C3       C     0.375        0.666667     0.348485     0
C4       C     0.40625      0.666667     0.30303      0
C1       C     0.375        0.666667     0.378788     0
C2       C     0.40625      0.666667     0.424243     0
C3       C     0.375        0.666667     0.439394     0
C4       C     0.40625      0.666667     0.393939     0
C1       C     0.375        0.666667     0.469697     0
C2       C     0.40625      0.666667     0.515152     0
C3       C     0.375        0.666667     0.530303     0
C4       C     0.40625      0.666667     0.484848     0
C1       C     0.375        0.666667     0.560606     0
C2       C     0.40625      0.666667     0.606061     0
C3       C     0.375        0.666667     0.621212     0
C4       C     0.40625      0.666667     0.575757     0
C1       C     0.375        0.666667     0.651515     0
C2       C     0.40625      0.666667     0.69697      0
C3       C     0.375        0.666667     0.712121     0
C4       C     0.40625      0.666667     0.666666     0
C1       C     0.375        0.666667     0.742425     0
C2       C     0.40625      0.666667     0.787879     0
C3       C     0.375        0.666667     0.80303      0
C4       C     0.40625      0.666667     0.757575     0
C1       C     0.375        0.666667     0.833334     0
C2       C     0.40625      0.666667     0.878788     0
C3       C     0.375        0.666667     0.893939     0
C4       C     0.40625      0.666667     0.848485     0
C1       C     0.375        0.666667     0.924243     0
C2       C     0.40625      0.666667     0.969697     0
C3       C     0.375        0.666667     0.984848     0
C4       C     0.40625      0.666667     0.939394     0
C1       C     0.4375       0            0.0151518    0
C2       C     0.46875      0            0.0606064    0
C3       C     0.4375       0            0.0757573    0
C4       C     0.46875      0            0.0303027    0
C1       C     0.4375       0            0.106061     0
C2       C     0.46875      0            0.151515     0
C3       C     0.4375       0            0.166666     0
C4       C     0.46875      0            0.121212     0
C1       C     0.4375       0            0.19697      0
C2       C     0.46875      0            0.242425     0
C3       C     0.4375       0            0.257575     0
C4       C     0.46875      0            0.212121     0
C1       C     0.4375       0            0.287879     0
C2       C     0.46875      0            0.333334     0
C3       C     0.4375       0            0.348485     0
C4       C     0.46875      0            0.30303      0
C1       C     0.4375       0            0.378788     0
C2       C     0.46875      0            0.424243     0
C3       C     0.4375       0            0.439394     0
C4       C     0.46875      0            0.393939     0
C1       C     0.4375       0            0.469697     0
C2       C     0.46875      0            0.515152     0
C3       C     0.4375       0            0.530303     0
C4       C     0.46875      0            0.484848     0
C1       C     0.4375       0            0.560606     0
C2       C     0.46875      0            0.606061     0
C3       C     0.4375       0            0.621212     0
C4       C     0.46875      0            0.575757     0
C1       C     0.4375       0            0.651515     0
C2       C     0.46875      0            0.69697      0
C3       C     0.4375       0            0.712121     0
C4       C     0.46875      0            0.666666     0
C1       C     0.4375       0            0.742425     0
C2       C     0.46875      0            0.787879     0
C3       C     0.4375       0            0.80303      0
C4       C     0.46875      0            0.757575     0
C1       C     0.4375       0            0.833334     0
C2       C     0.46875      0            0.878788     0
C3       C     0.4375       0            0.893939     0
C4       C     0.46875      0            0.848485     0
C1       C     0.4375       0            0.924243     0
C2       C     0.46875      0            0.969697     0
C3       C     0.4375       0            0.984848     0
C4       C     0.46875      0            0.939394     0
C1       C     0.4375       0.333333     0.0151518    0
C2       C     0.46875      0.333333     0.0606064    0
C3       C     0.4375       0.333333     0.0757573    0
C4       C     0.46875      0.333333     0.0303027    0
C1       C     0.4375       0.333333     0.106061     0
C2       C     0.46875      0.333333     0.151515     0
C3       C     0.4375       0.333333     0.166666     0
C4       C     0.46875      0.333333     0.121212     0
C1       C     0.4375       0.333333     0.19697      0
C2       C     0.46875      0.333333     0.242425     0
C3       C     0.4375       0.333333     0.257575     0
C4       C     0.46875      0.333333     0.212121     0
C1       C     0.4375       0.333333     0.287879     0
C2       C     0.46875      0.333333     0.333334     0
C3       C     0.4375       0.333333     0.348485     0
C4       C     0.46875      0.333333     0.30303      0
C1       C     0.4375       0.333333     0.378788     0
C2       C     0.46875      0.333333     0.424243     0
C3       C     0.4375       0.333333     0.439394     0
C4       C     0.46875      0.333333     0.393939     0
C1       C     0.4375       0.333333     0.469697     0
C2       C     0.46875      0.333333     0.515152     0
C3       C     0.4375       0.333333     0.530303     0
C4       C     0.46875      0.333333     0.484848     0
C1       C     0.4375       0.333333     0.560606     0
C2       C     0.46875      0.333333     0.606061     0
C3       C     0.4375       0.333333     0.621212     0
C4       C     0.46875      0.333333     0.575757     0
C1       C     0.4375       0.333333     0.651515     0
C2       C     0.46875      0.333333     0.69697      0
C3       C     0.4375       0.333333     0.712121     0
C4       C     0.46875      0.333333     0.666666     0
C1       C     0.4375       0.333333     0.742425     0
C2       C     0.46875      0.333333     0.787879     0
C3       C     0.4375       0.333333     0.80303      0
C4       C     0.46875      0.333333     0.757575     0
C1       C     0.4375       0.333333     0.833334     0
C2       C     0.46875      0.333333     0.878788     0
C3       C     0.4375       0.333333     0.893939     0
C4       C     0.46875      0.333333     0.848485     0
C1       C     0.4375       0.333333     0.924243     0
C2       C     0.46875      0.333333     0.969697     0
C3       C     0.4375       0.333333     0.984848     0
C4       C     0.46875      0.333333     0.939394     0
C1       C     0.4375       0.666667     0.0151518    0
C2       C     0.46875      0.666667     0.0606064    0
C3       C     0.4375       0.666667     0.0757573    0
C4       C     0.46875      0.666667     0.0303027    0
C1       C     0.4375       0.666667     0.106061     0
C2       C     0.46875      0.666667     0.151515     0
C3       C     0.4375       0.666667     0.166666     0
C4       C     0.46875      0.666667     0.121212     0
C1       C     0.4375       0.666667     0.19697      0
C2       C     0.46875      0.666667     0.242425     0
C3       C     0.4375       0.666667     0.257575     0
C4       C     0.46875      0.666667     0.212121     0
C1       C     0.4375       0.666667     0.287879     0
C2       C     0.46875      0.666667     0.333334     0
C3       C     0.4375       0.666667     0.348485     0
C4       C     0.46875      0.666667     0.30303      0
C1       C     0.4375       0.666667     0.378788     0
C2       C     0.46875      0.666667     0.424243     0
C3       C     0.4375       0.666667     0.439394     0
C4       C     0.46875      0.666667     0.393939     0
C1       C     0.4375       0.666667     0.469697     0
C2       C     0.46875      0.666667     0.515152     0
C3       C     0.4375       0.666667     0.530303     0
C4       C     0.46875      0.666667     0.484848     0
C1       C     0.4375       0.666667     0.560606     0
C2       C     0.46875      0.666667     0.606061     0
C3       C     0.4375       0.666667     0.621212     0
C4       C     0.46875      0.666667     0.575757     0
C1       C     0.4375       0.666667     0.651515     0
C2       C     0.46875      0.666667     0.69697      0
C3       C     0.4375       0.666667     0.712121     0
C4       C     0.46875      0.666667     0.666666     0
C1       C     0.4375       0.666667     0.742425     0
C2       C     0.46875      0.666667     0.787879     0
C3       C     0.4375       0.666667     0.80303      0
C4       C     0.46875      0.666667     0.757575     0
C1       C     0.4375       0.666667     0.833334     0
C2       C     0.46875      0.666667     0.878788     0
C3       C     0.4375       0.666667     0.893939     0
C4       C     0.46875      0.666667     0.848485     0
C1       C     0.4375       0.666667     0.924243     0
C2       C     0.46875      0.666667     0.969697     0
C3       C     0.4375       0.666667     0.984848     0
C4       C     0.46875      0.666667     0.939394     0
C1       C     0.5          0            0.0151518    0
C2       C     0.53125      0            0.0606064    0
C3       C     0.5          0            0.0757573    0
C4       C     0.53125      0            0.0303027    0
C1       C     0.5          0            0.106061     0
C2       C     0.53125      0            0.151515     0
C3       C     0.5          0            0.166666     0
C4       C     0.53125      0            0.121212     0
C1       C     0.5          0            0.19697      0
C2       C     0.53125      0            0.242425     0
C3       C     0.5          0            0.257575     0
C4       C     0.53125      0            0.212121     0
C1       C     0.5          0            0.287879     0
C2       C     0.53125      0            0.333334     0
C3       C     0.5          0            0.348485     0
C4       C     0.53125      0            0.30303      0
C1       C     0.5          0            0.378788     0
C2       C     0.53125      0            0.424243     0
C3       C     0.5          0            0.439394     0
C4       C     0.53125      0            0.393939     0
C1       C     0.5          0            0.469697     0
C2       C     0.53125      0            0.515152     0
C3       C     0.5          0            0.530303     0
C4       C     0.53125      0            0.484848     0
C1       C     0.5          0            0.560606     0
C2       C     0.53125      0            0.606061     0
C3       C     0.5          0            0.621212     0
C4       C     0.53125      0            0.575757     0
C1       C     0.5          0            0.651515     0
C2       C     0.53125      0            0.69697      0
C3       C     0.5          0            0.712121     0
C4       C     0.53125      0            0.666666     0
C1       C     0.5          0            0.742425     0
C2       C     0.53125      0            0.787879     0
C3       C     0.5          0            0.80303      0
C4       C     0.53125      0            0.757575     0
C1       C     0.5          0            0.833334     0
C2       C     0.53125      0            0.878788     0
C3       C     0.5          0            0.893939     0
C4       C     0.53125      0            0.848485     0
C1       C     0.5          0            0.924243     0
C2       C     0.53125      0            0.969697     0
C3       C     0.5          0            0.984848     0
C4       C     0.53125      0            0.939394     0
C1       C     0.5          0.333333     0.0151518    0
C2       C     0.53125      0.333333     0.0606064    0
C3       C     0.5          0.333333     0.0757573    0
C4       C     0.53125      0.333333     0.0303027    0
C1       C     0.5          0.333333     0.106061     0
C2       C     0.53125      0.333333     0.151515     0
C3       C     0.5          0.333333     0.166666     0
C4       C     0.53125      0.333333     0.121212     0
C1       C     0.5          0.333333     0.19697      0
C2       C     0.53125      0.333333     0.242425     0
C3       C     0.5          0.333333     0.257575     0
C4       C     0.53125      0.333333     0.212121     0
C1       C     0.5          0.333333     0.287879     0
C2       C     0.53125      0.333333     0.333334     0
C3       C     0.5          0.333333     0.348485     0
C4       C     0.53125      0.333333     0.30303      0
C1       C     0.5          0.333333     0.378788     0
C2       C     0.53125      0.333333     0.424243     0
C3       C     0.5          0.333333     0.439394     0
C4       C     0.53125      0.333333     0.393939     0
C1       C     0.5          0.333333     0.469697     0
C2       C     0.53125      0.333333     0.515152     0
C3       C     0.5          0.333333     0.530303     0
C4       C     0.53125      0.333333     0.484848     0
C1       C     0.5          0.333333     0.560606     0
C2       C     0.53125      0.333333     0.606061     0
C3       C     0.5          0.333333     0.621212     0
C4       C     0.53125      0.333333     0.575757     0
C1       C     0.5          0.333333     0.651515     0
C2       C     0.53125      0.333333     0.69697      0
C3       C     0.5          0.333333     0.712121     0
C4       C     0.53125      0.333333     0.666666     0
C1       C     0.5          0.333333     0.742425     0
C2       C     0.53125      0.333333     0.787879     0
C3       C     0.5          0.333333     0.80303      0
C4       C     0.53125      0.333333     0.757575     0
C1       C     0.5          0.333333     0.833334     0
C2       C     0.53125      0.333333     0.878788     0
C3       C     0.5          0.333333     0.893939     0
C4       C     0.53125      0.333333     0.848485     0
C1       C     0.5          0.333333     0.924243     0
C2       C     0.53125      0.333333     0.969697     0
C3       C     0.5          0.333333     0.984848     0
C4       C     0.53125      0.333333     0.939394     0
C1       C     0.5          0.666667     0.0151518    0
C2       C     0.53125      0.666667     0.0606064    0
C3       C     0.5          0.666667     0.0757573    0
C4       C     0.53125      0.666667     0.0303027    0
C1       C     0.5          0.666667     0.106061     0
C2       C     0.53125      0.666667     0.151515     0
C3       C     0.5          0.666667     0.166666     0
C4       C     0.53125      0.666667     0.121212     0
C1       C     0.5          0.666667     0.19697      0
C2       C     0.53125      0.666667     0.242425     0
C3       C     0.5          0.666667     0.257575     0
C4       C     0.53125      0.666667     0.212121     0
C1       C     0.5          0.666667     0.287879     0
C2       C     0.53125      0.666667     0.333334     0
C3       C     0.5          0.666667     0.348485     0
C4       C     0.53125      0.666667     0.30303      0
C1       C     0.5          0.666667     0.378788     0
C2       C     0.53125      0.666667     0.424243     0
C3       C     0.5          0.666667     0.439394     0
C4       C     0.53125      0.666667     0.393939     0
C1       C     0.5          0.666667     0.469697     0
C2       C     0.53125      0.666667     0.515152     0
C3       C     0.5          0.666667     0.530303     0
C4       C     0.53125      0.666667     0.484848     0
C1       C     0.5          0.666667     0.560606     0
C2       C     0.53125      0.666667     0.606061     0
C3       C     0.5          0.666667     0.621212     0
C4       C     0.53125      0.666667     0.575757     0
C1       C     0.5          0.666667     0.651515     0
C2       C     0.53125      0.666667     0.69697      0
C3       C     0.5          0.666667     0.712121     0
C4       C     0.53125      0.666667     0.666666     0
C1       C     0.5          0.666667     0.742425     0
C2       C     0.53125      0.666667     0.787879     0
C3       C     0.5          0.666667     0.80303      0
C4       C     0.53125      0.666667     0.757575     0
C1       C     0.5          0.666667     0.833334     0
C2       C     0.53125      0.666667     0.878788     0
C3       C     0.5          0.666667     0.893939     0
C4       C     0.53125      0.666667     0.848485     0
C1       C     0.5          0.666667     0.924243     0
C2       C     0.53125      0.666667     0.969697     0
C3       C     0.5          0.666667     0.984848     0
C4       C     0.53125      0.666667     0.939394     0
C1       C     0.5625       0            0.0151518    0
C2       C     0.59375      0            0.0606064    0
C3       C     0.5625       0            0.0757573    0
C4       C     0.59375      0            0.0303027    0
C1       C     0.5625       0            0.106061     0
C2       C     0.59375      0            0.151515     0
C3       C     0.5625       0            0.166666     0
C4       C     0.59375      0            0.121212     0
C1       C     0.5625       0            0.19697      0
C2       C     0.59375      0            0.242425     0
C3       C     0.5625       0            0.257575     0
C4       C     0.59375      0            0.212121     0
C1       C     0.5625       0            0.287879     0
C2       C     0.59375      0            0.333334     0
C3       C     0.5625       0            0.348485     0
C4       C     0.59375      0            0.30303      0
C1       C     0.5625       0            0.378788     0
C2       C     0.59375      0            0.424243     0
C3       C     0.5625       0            0.439394     0
C4       C     0.59375      0            0.393939     0
C1       C     0.5625       0            0.469697     0
C2       C     0.59375      0            0.515152     0
C3       C     0.5625       0            0.530303     0
C4       C     0.59375      0            0.484848     0
C1       C     0.5625       0            0.560606     0
C2       C     0.59375      0            0.606061     0
C3       C     0.5625       0            0.621212     0
C4       C     0.59375      0            0.575757     0
C1       C     0.5625       0            0.651515     0
C2       C     0.59375      0            0.69697      0
C3       C     0.5625       0            0.712121     0
C4       C     0.59375      0            0.666666     0
C1       C     0.5625       0            0.742425     0
C2       C     0.59375      0            0.787879     0
C3       C     0.5625       0            0.80303      0
C4       C     0.59375      0            0.757575     0
C1       C     0.5625       0            0.833334     0
C2       C     0.59375      0            0.878788     0
C3       C     0.5625       0            0.893939     0
C4       C     0.59375      0            0.848485     0
C1       C     0.5625       0            0.924243     0
C2       C     0.59375      0            0.969697     0
C3       C     0.5625       0            0.984848     0
C4       C     0.59375      0            0.939394     0
C1       C     0.5625       0.333333     0.0151518    0
C2       C     0.59375      0.333333     0.0606064    0
C3       C     0.5625       0.333333     0.0757573    0
C4       C     0.59375      0.333333     0.0303027    0
C1       C     0.5625       0.333333     0.106061     0
C2       C     0.59375      0.333333     0.151515     0
C3       C     0.5625       0.333333     0.166666     0
C4       C     0.59375      0.333333     0.121212     0
C1       C     0.5625       0.333333     0.19697      0
C2       C     0.59375      0.333333     0.242425     0
C3       C     0.5625       0.333333     0.257575     0
C4       C     0.59375      0.333333     0.212121     0
C1       C     0.5625       0.333333     0.287879     0
C2       C     0.59375      0.333333     0.333334     0
C3       C     0.5625       0.333333     0.348485     0
C4       C     0.59375      0.333333     0.30303      0
C1       C     0.5625       0.333333     0.378788     0
C2       C     0.59375      0.333333     0.424243     0
C3       C     0.5625       0.333333     0.439394     0
C4       C     0.59375      0.333333     0.393939     0
C1       C     0.5625       0.333333     0.469697     0
C2       C     0.59375      0.333333     0.515152     0
C3       C     0.5625       0.333333     0.530303     0
C4       C     0.59375      0.333333     0.484848     0
C1       C     0.5625       0.333333     0.560606     0
C2       C     0.59375      0.333333     0.606061     0
C3       C     0.5625       0.333333     0.621212     0
C4       C     0.59375      0.333333     0.575757     0
C1       C     0.5625       0.333333     0.651515     0
C2       C     0.59375      0.333333     0.69697      0
C3       C     0.5625       0.333333     0.712121     0
C4       C     0.59375      0.333333     0.666666     0
C1       C     0.5625       0.333333     0.742425     0
C2       C     0.59375      0.333333     0.787879     0
C3       C     0.5625       0.333333     0.80303      0
C4       C     0.59375      0.333333     0.757575     0
C1       C     0.5625       0.333333     0.833334     0
C2       C     0.59375      0.333333     0.878788     0
C3       C     0.5625       0.333333     0.893939     0
C4       C     0.59375      0.333333     0.848485     0
C1       C     0.5625       0.333333     0.924243     0
C2       C     0.59375      0.333333     0.969697     0
C3       C     0.5625       0.333333     0.984848     0
C4       C     0.59375      0.333333     0.939394     0
C1       C     0.5625       0.666667     0.0151518    0
C2       C     0.59375      0.666667     0.0606064    0
C3       C     0.5625       0.666667     0.0757573    0
C4       C     0.59375      0.666667     0.0303027    0
C1       C     0.5625       0.666667     0.106061     0
C2       C     0.59375      0.666667     0.151515     0
C3       C     0.5625       0.666667     0.166666     0
C4       C     0.59375      0.666667     0.121212     0
C1       C     0.5625       0.666667     0.19697      0
C2       C     0.59375      0.666667     0.242425     0
C3       C     0.5625       0.666667     0.257575     0
C4       C     0.59375      0.666667     0.212121     0
C1       C     0.5625       0.666667     0.287879     0
C2       C     0.59375      0.666667     0.333334     0
C3       C     0.5625       0.666667     0.348485     0
C4       C     0.59375      0.666667     0.30303      0
C1       C     0.5625       0.666667     0.378788     0
C2       C     0.59375      0.666667     0.424243     0
C3       C     0.5625       0.666667     0.439394     0
C4       C     0.59375      0.666667     0.393939     0
C1       C     0.5625       0.666667     0.469697     0
C2       C     0.59375      0.666667     0.515152     0
C3       C     0.5625       0.666667     0.530303     0
C4       C     0.59375      0.666667     0.484848     0
C1       C     0.5625       0.666667     0.560606     0
C2       C     0.59375      0.666667     0.606061     0
C3       C     0.5625       0.666667     0.621212     0
C4       C     0.59375      0.666667     0.575757     0
C1       C     0.5625       0.666667     0.651515     0
C2       C     0.59375      0.666667     0.69697      0
C3       C     0.5625       0.666667     0.712121     0
C4       C     0.59375      0.666667     0.666666     0
C1       C     0.5625       0.666667     0.742425     0
C2       C     0.59375      0.666667     0.787879     0
C3       C     0.5625       0.666667     0.80303      0
C4       C     0.59375      0.666667     0.757575     0
C1       C     0.5625       0.666667     0.833334     0
C2       C     0.59375      0.666667     0.878788     0
C3       C     0.5625       0.666667     0.893939     0
C4       C     0.59375      0.666667     0.848485     0
C1       C     0.5625       0.666667     0.924243     0
C2       C     0.59375      0.666667     0.969697     0
C3       C     0.5625       0.666667     0.984848     0
C4       C     0.59375      0.666667     0.939394     0
C1       C     0.625        0            0.0151518    0
C2       C     0.65625      0            0.0606064    0
C3       C     0.625        0            0.0757573    0
C4       C     0.65625      0            0.0303027    0
C1       C     0.625        0            0.106061     0
C2       C     0.65625      0            0.151515     0
C3       C     0.625        0            0.166666     0
C4       C     0.65625      0            0.121212     0
C1       C     0.625        0            0.19697      0
C2       C     0.65625      0            0.242425     0
C3       C     0.625        0            0.257575     0
C4       C     0.65625      0            0.212121     0
C1       C     0.625        0            0.287879     0
C2       C     0.65625      0            0.333334     0
C3       C     0.625        0            0.348485     0
C4       C     0.65625      0            0.30303      0
C1       C     0.625        0            0.378788     0
C2       C     0.65625      0            0.424243     0
C3       C     0.625        0            0.439394     0
C4       C     0.65625      0            0.393939     0
C1       C     0.625        0            0.469697     0
C2       C     0.65625      0            0.515152     0
C3       C     0.625        0            0.530303     0
C4       C     0.65625      0            0.484848     0
C1       C     0.625        0            0.560606     0
C2       C     0.65625      0            0.606061     0
C3       C     0.625        0            0.621212     0
C4       C     0.65625      0            0.575757     0
C1       C     0.625        0            0.651515     0
C2       C     0.65625      0            0.69697      0
C3       C     0.625        0            0.712121     0
C4       C     0.65625      0            0.666666     0
C1       C     0.625        0            0.742425     0
C2       C     0.65625      0            0.787879     0
C3       C     0.625        0            0.80303      0
C4       C     0.65625      0            0.757575     0
C1       C     0.625        0            0.833334     0
C2       C     0.65625      0            0.878788     0
C3       C     0.625        0            0.893939     0
C4       C     0.65625      0            0.848485     0
C1       C     0.625        0            0.924243     0
C2       C     0.65625      0            0.969697     0
C3       C     0.625        0            0.984848     0
C4       C     0.65625      0            0.939394     0
C1       C     0.625        0.333333     0.0151518    0
C2       C     0.65625      0.333333     0.0606064    0
C3       C     0.625        0.333333     0.0757573    0
C4       C     0.65625      0.333333     0.0303027    0
C1       C     0.625        0.333333     0.106061     0
C2       C     0.65625      0.333333     0.151515     0
C3       C     0.625        0.333333     0.166666     0
C4       C     0.65625      0.333333     0.121212     0
C1       C     0.625        0.333333     0.19697      0
C2       C     0.65625      0.333333     0.242425     0
C3       C     0.625        0.333333     0.257575     0
C4       C     0.65625      0.333333     0.212121     0
C1       C     0.625        0.333333     0.287879     0
C2       C     0.65625      0.333333     0.333334     0
C3       C     0.625        0.333333     0.348485     0
C4       C     0.65625      0.333333     0.30303      0
C1       C     0.625        0.333333     0.378788     0
C2       C     0.65625      0.333333     0.424243     0
C3       C     0.625        0.333333     0.439394     0
C4       C     0.65625      0.333333     0.393939     0
C1       C     0.625        0.333333     0.469697     0
C2       C     0.65625      0.333333     0.515152     0
C3       C     0.625        0.333333     0.530303     0
C4       C     0.65625      0.333333     0.484848     0
C1       C     0.625        0.333333     0.560606     0
C2       C     0.65625      0.333333     0.606061     0
C3       C     0.625        0.333333     0.621212     0
C4       C     0.65625      0.333333     0.575757     0
C1       C     0.625        0.333333     0.651515     0
C2       C     0.65625      0.333333     0.69697      0
C3       C     0.625        0.333333     0.712121     0
C4       C     0.65625      0.333333     0.666666     0
C1       C     0.625        0.333333     0.742425     0
C2       C     0.65625      0.333333     0.787879     0
C3       C     0.625        0.333333     0.80303      0
C4       C     0.65625      0.333333     0.757575     0
C1       C     0.625        0.333333     0.833334     0
C2       C     0.65625      0.333333     0.878788     0
C3       C     0.625        0.333333     0.893939     0
C4       C     0.65625      0.333333     0.848485     0
C1       C     0.625        0.333333     0.924243     0
C2       C     0.65625      0.333333     0.969697     0
C3       C     0.625        0.333333     0.984848     0
C4       C     0.65625      0.333333     0.939394     0
C1       C     0.625        0.666667     0.0151518    0
C2       C     0.65625      0.666667     0.0606064    0
C3       C     0.625        0.666667     0.0757573    0
C4       C     0.65625      0.666667     0.0303027    0
C1       C     0.625        0.666667     0.106061     0
C2       C     0.65625      0.666667     0.151515     0
C3       C     0.625        0.666667     0.166666     0
C4       C     0.65625      0.666667     0.121212     0
C1       C     0.625        0.666667     0.19697      0
C2       C     0.65625      0.666667     0.242425     0
C3       C     0.625        0.666667     0.257575     0
C4       C     0.65625      0.666667     0.212121     0
C1       C     0.625        0.666667     0.287879     0
C2       C     0.65625      0.666667     0.333334     0
C3       C     0.625        0.666667     0.348485     0
C4       C     0.65625      0.666667     0.30303      0
C1       C     0.625        0.666667     0.378788     0
C2       C     0.65625      0.666667     0.424243     0
C3       C     0.625        0.666667     0.439394     0
C4       C     0.65625      0.666667     0.393939     0
C1       C     0.625        0.666667     0.469697     0
C2       C     0.65625      0.666667     0.515152     0
C3       C     0.625        0.666667     0.530303     0
C4       C     0.65625      0.666667     0.484848     0
C1       C     0.625        0.666667     0.560606     0
C2       C     0.65625      0.666667     0.606061     0
C3       C     0.625        0.666667     0.621212     0
C4       C     0.65625      0.666667     0.575757     0
C1       C     0.625        0.666667     0.651515     0
C2       C     0.65625      0.666667     0.69697      0
C3       C     0.625        0.666667     0.712121     0
C4       C     0.65625      0.666667     0.666666     0
C1       C     0.625        0.666667     0.742425     0
C2       C     0.65625      0.666667     0.787879     0
C3       C     0.625        0.666667     0.80303      0
C4       C     0.65625      0.666667     0.757575     0
C1       C     0.625        0.666667     0.833334     0
C2       C     0.65625      0.666667     0.878788     0
C3       C     0.625        0.666667     0.893939     0
C4       C     0.65625      0.666667     0.848485     0
C1       C     0.625        0.666667     0.924243     0
C2       C     0.65625      0.666667     0.969697     0
C3       C     0.625        0.666667     0.984848     0
C4       C     0.65625      0.666667     0.939394     0
C1       C     0.6875       0            0.0151518    0
C2       C     0.71875      0            0.0606064    0
C3       C     0.6875       0            0.0757573    0
C4       C     0.71875      0            0.0303027    0
C1       C     0.6875       0            0.106061     0
C2       C     0.71875      0            0.151515     0
C3       C     0.6875       0            0.166666     0
C4       C     0.71875      0            0.121212     0
C1       C     0.6875       0            0.19697      0
C2       C     0.71875      0            0.242425     0
C3       C     0.6875       0            0.257575     0
C4       C     0.71875      0            0.212121     0
C1       C     0.6875       0            0.287879     0
C2       C     0.71875      0            0.333334     0
C3       C     0.6875       0            0.348485     0
C4       C     0.71875      0            0.30303      0
C1       C     0.6875       0            0.378788     0
C2       C     0.71875      0            0.424243     0
C3       C     0.6875       0            0.439394     0
C4       C     0.71875      0            0.393939     0
C1       C     0.6875       0            0.469697     0
C2       C     0.71875      0            0.515152     0
C3       C     0.6875       0            0.530303     0
C4       C     0.71875      0            0.484848     0
C1       C     0.6875       0            0.560606     0
C2       C     0.71875      0            0.606061     0
C3       C     0.6875       0            0.621212     0
C4       C     0.71875      0            0.575757     0
C1       C     0.6875       0            0.651515     0
C2       C     0.71875      0            0.69697      0
C3       C     0.6875       0            0.712121     0
C4       C     0.71875      0            0.666666     0
C1       C     0.6875       0            0.742425     0
C2       C     0.71875      0            0.787879     0
C3       C     0.6875       0            0.80303      0
C4       C     0.71875      0            0.757575     0
C1       C     0.6875       0            0.833334     0
C2       C     0.71875      0            0.878788     0
C3       C     0.6875       0            0.893939     0
C4       C     0.71875      0            0.848485     0
C1       C     0.6875       0            0.924243     0
C2       C     0.71875      0            0.969697     0
C3       C     0.6875       0            0.984848     0
C4       C     0.71875      0            0.939394     0
C1       C     0.6875       0.333333     0.0151518    0
C2       C     0.71875      0.333333     0.0606064    0
C3       C     0.6875       0.333333     0.0757573    0
C4       C     0.71875      0.333333     0.0303027    0
C1       C     0.6875       0.333333     0.106061     0
C2       C     0.71875      0.333333     0.151515     0
C3       C     0.6875       0.333333     0.166666     0
C4       C     0.71875      0.333333     0.121212     0
C1       C     0.6875       0.333333     0.19697      0
C2       C     0.71875      0.333333     0.242425     0
C3       C     0.6875       0.333333     0.257575     0
C4       C     0.71875      0.333333     0.212121     0
C1       C     0.6875       0.333333     0.287879     0
C2       C     0.71875      0.333333     0.333334     0
C3       C     0.6875       0.333333     0.348485     0
C4       C     0.71875      0.333333     0.30303      0
C1       C     0.6875       0.333333     0.378788     0
C2       C     0.71875      0.333333     0.424243     0
C3       C     0.6875       0.333333     0.439394     0
C4       C     0.71875      0.333333     0.393939     0
C1       C     0.6875       0.333333     0.469697     0
C2       C     0.71875      0.333333     0.515152     0
C3       C     0.6875       0.333333     0.530303     0
C4       C     0.71875      0.333333     0.484848     0
C1       C     0.6875       0.333333     0.560606     0
C2       C     0.71875      0.333333     0.606061     0
C3       C     0.6875       0.333333     0.621212     0
C4       C     0.71875      0.333333     0.575757     0
C1       C     0.6875       0.333333     0.651515     0
C2       C     0.71875      0.333333     0.69697      0
C3       C     0.6875       0.333333     0.712121     0
C4       C     0.71875      0.333333     0.666666     0
C1       C     0.6875       0.333333     0.742425     0
C2       C     0.71875      0.333333     0.787879     0
C3       C     0.6875       0.333333     0.80303      0
C4       C     0.71875      0.333333     0.757575     0
C1       C     0.6875       0.333333     0.833334     0
C2       C     0.71875      0.333333     0.878788     0
C3       C     0.6875       0.333333     0.893939     0
C4       C     0.71875      0.333333     0.848485     0
C1       C     0.6875       0.333333     0.924243     0
C2       C     0.71875      0.333333     0.969697     0
C3       C     0.6875       0.333333     0.984848     0
C4       C     0.71875      0.333333     0.939394     0
C1       C     0.6875       0.666667     0.0151518    0
C2       C     0.71875      0.666667     0.0606064    0
C3       C     0.6875       0.666667     0.0757573    0
C4       C     0.71875      0.666667     0.0303027    0
C1       C     0.6875       0.666667     0.106061     0
C2       C     0.71875      0.666667     0.151515     0
C3       C     0.6875       0.666667     0.166666     0
C4       C     0.71875      0.666667     0.121212     0
C1       C     0.6875       0.666667     0.19697      0
C2       C     0.71875      0.666667     0.242425     0
C3       C     0.6875       0.666667     0.257575     0
C4       C     0.71875      0.666667     0.212121     0
C1       C     0.6875       0.666667     0.287879     0
C2       C     0.71875      0.666667     0.333334     0
C3       C     0.6875       0.666667     0.348485     0
C4       C     0.71875      0.666667     0.30303      0
C1       C     0.6875       0.666667     0.378788     0
C2       C     0.71875      0.666667     0.424243     0
C3       C     0.6875       0.666667     0.439394     0
C4       C     0.71875      0.666667     0.393939     0
C1       C     0.6875       0.666667     0.469697     0
C2       C     0.71875      0.666667     0.515152     0
C3       C     0.6875       0.666667     0.530303     0
C4       C     0.71875      0.666667     0.484848     0
C1       C     0.6875       0.666667     0.560606     0
C2       C     0.71875      0.666667     0.606061     0
C3       C     0.6875       0.666667     0.621212     0
C4       C     0.71875      0.666667     0.575757     0
C1       C     0.6875       0.666667     0.651515     0
C2       C     0.71875      0.666667     0.69697      0
C3       C     0.6875       0.666667     0.712121     0
C4       C     0.71875      0.666667     0.666666     0
C1       C     0.6875       0.666667     0.742425     0
C2       C     0.71875      0.666667     0.787879     0
C3       C     0.6875       0.666667     0.80303      0
C4       C     0.71875      0.666667     0.757575     0
C1       C     0.6875       0.666667     0.833334     0
C2       C     0.71875      0.666667     0.878788     0
C3       C     0.6875       0.666667     0.893939     0
C4       C     0.71875      0.666667     0.848485     0
C1       C     0.6875       0.666667     0.924243     0
C2       C     0.71875      0.666667     0.969697     0
C3       C     0.6875       0.666667     0.984848     0
C4       C     0.71875      0.666667     0.939394     0
C1       C     0.75         0            0.0151518    0
C2       C     0.78125      0            0.0606064    0
C3       C     0.75         0            0.0757573    0
C4       C     0.78125      0            0.0303027    0
C1       C     0.75         0            0.106061     0
C2       C     0.78125      0            0.151515     0
C3       C     0.75         0            0.166666     0
C4       C     0.78125      0            0.121212     0
C1       C     0.75         0            0.19697      0
C2       C     0.78125      0            0.242425     0
C3       C     0.75         0            0.257575     0
C4       C     0.78125      0            0.212121     0
C1       C     0.75         0            0.287879     0
C2       C     0.78125      0            0.333334     0
C3       C     0.75         0            0.348485     0
C4       C     0.78125      0            0.30303      0
C1       C     0.75         0            0.378788     0
C2       C     0.78125      0            0.424243     0
C3       C     0.75         0            0.439394     0
C4       C     0.78125      0            0.393939     0
C1       C     0.75         0            0.469697     0
C2       C     0.78125      0            0.515152     0
C3       C     0.75         0            0.530303     0
C4       C     0.78125      0            0.484848     0
C1       C     0.75         0            0.560606     0
C2       C     0.78125      0            0.606061     0
C3       C     0.75         0            0.621212     0
C4       C     0.78125      0            0.575757     0
C1       C     0.75         0            0.651515     0
C2       C     0.78125      0            0.69697      0
C3       C     0.75         0            0.712121     0
C4       C     0.78125      0            0.666666     0
C1       C     0.75         0            0.742425     0
C2       C     0.78125      0            0.787879     0
C3       C     0.75         0            0.80303      0
C4       C     0.78125      0            0.757575     0
C1       C     0.75         0            0.833334     0
C2       C     0.78125      0            0.878788     0
C3       C     0.75         0            0.893939     0
C4       C     0.78125      0            0.848485     0
C1       C     0.75         0            0.924243     0
C2       C     0.78125      0            0.969697     0
C3       C     0.75         0            0.984848     0
C4       C     0.78125      0            0.939394     0
C1       C     0.75         0.333333     0.0151518    0
C2       C     0.78125      0.333333     0.0606064    0
C3       C     0.75         0.333333     0.0757573    0
C4       C     0.78125      0.333333     0.0303027    0
C1       C     0.75         0.333333     0.106061     0
C2       C     0.78125      0.333333     0.151515     0
C3       C     0.75         0.333333     0.166666     0
C4       C     0.78125      0.333333     0.121212     0
C1       C     0.75         0.333333     0.19697      0
C2       C     0.78125      0.333333     0.242425     0
C3       C     0.75         0.333333     0.257575     0
C4       C     0.78125      0.333333     0.212121     0
C1       C     0.75         0.333333     0.287879     0
C2       C     0.78125      0.333333     0.333334     0
C3       C     0.75         0.333333     0.348485     0
C4       C     0.78125      0.333333     0.30303      0
C1       C     0.75         0.333333     0.378788     0
C2       C     0.78125      0.333333     0.424243     0
C3       C     0.75         0.333333     0.439394     0
C4       C     0.78125      0.333333     0.393939     0
C1       C     0.75         0.333333     0.469697     0
C2       C     0.78125      0.333333     0.515152     0
C3       C     0.75         0.333333     0.530303     0
C4       C     0.78125      0.333333     0.484848     0
C1       C     0.75         0.333333     0.560606     0
C2       C     0.78125      0.333333     0.606061     0
C3       C     0.75         0.333333     0.621212     0
C4       C     0.78125      0.333333     0.575757     0
C1       C     0.75         0.333333     0.651515     0
C2       C     0.78125      0.333333     0.69697      0
C3       C     0.75         0.333333     0.712121     0
C4       C     0.78125      0.333333     0.666666     0
C1       C     0.75         0.333333     0.742425     0
C2       C     0.78125      0.333333     0.787879     0
C3       C     0.75         0.333333     0.80303      0
C4       C     0.78125      0.333333     0.757575     0
C1       C     0.75         0.333333     0.833334     0
C2       C     0.78125      0.333333     0.878788     0
C3       C     0.75         0.333333     0.893939     0
C4       C     0.78125      0.333333     0.848485     0
C1       C     0.75         0.333333     0.924243     0
C2       C     0.78125      0.333333     0.969697     0
C3       C     0.75         0.333333     0.984848     0
C4       C     0.78125      0.333333     0.939394     0
C1       C     0.75         0.666667     0.0151518    0
C2       C     0.78125      0.666667     0.0606064    0
C3       C     0.75         0.666667     0.0757573    0
C4       C     0.78125      0.666667     0.0303027    0
C1       C     0.75         0.666667     0.106061     0
C2       C     0.78125      0.666667     0.151515     0
C3       C     0.75         0.666667     0.166666     0
C4       C     0.78125      0.666667     0.121212     0
C1       C     0.75         0.666667     0.19697      0
C2       C     0.78125      0.666667     0.242425     0
C3       C     0.75         0.666667     0.257575     0
C4       C     0.78125      0.666667     0.212121     0
C1       C     0.75         0.666667     0.287879     0
C2       C     0.78125      0.666667     0.333334     0
C3       C     0.75         0.666667     0.348485     0
C4       C     0.78125      0.666667     0.30303      0
C1       C     0.75         0.666667     0.378788     0
C2       C     0.78125      0.666667     0.424243     0
C3       C     0.75         0.666667     0.439394     0
C4       C     0.78125      0.666667     0.393939     0
C1       C     0.75         0.666667     0.469697     0
C2       C     0.78125      0.666667     0.515152     0
C3       C     0.75         0.666667     0.530303     0
C4       C     0.78125      0.666667     0.484848     0
C1       C     0.75         0.666667     0.560606     0
C2       C     0.78125      0.666667     0.606061     0
C3       C     0.75         0.666667     0.621212     0
C4       C     0.78125      0.666667     0.575757     0
C1       C     0.75         0.666667     0.651515     0
C2       C     0.78125      0.666667     0.69697      0
C3       C     0.75         0.666667     0.712121     0
C4       C     0.78125      0.666667     0.666666     0
C1       C     0.75         0.666667     0.742425     0
C2       C     0.78125      0.666667     0.787879     0
C3       C     0.75         0.666667     0.80303      0
C4       C     0.78125      0.666667     0.757575     0
C1       C     0.75         0.666667     0.833334     0
C2       C     0.78125      0.666667     0.878788     0
C3       C     0.75         0.666667     0.893939     0
C4       C     0.78125      0.666667     0.848485     0
C1       C     0.75         0.666667     0.924243     0
C2       C     0.78125      0.666667     0.969697     0
C3       C     0.75         0.666667     0.984848     0
C4       C     0.78125      0.666667     0.939394     0
C1       C     0.8125       0            0.0151518    0
C2       C     0.84375      0            0.0606064    0
C3       C     0.8125       0            0.0757573    0
C4       C     0.84375      0            0.0303027    0
C1       C     0.8125       0            0.106061     0
C2       C     0.84375      0            0.151515     0
C3       C     0.8125       0            0.166666     0
C4       C     0.84375      0            0.121212     0
C1       C     0.8125       0            0.19697      0
C2       C     0.84375      0            0.242425     0
C3       C     0.8125       0            0.257575     0
C4       C     0.84375      0            0.212121     0
C1       C     0.8125       0            0.287879     0
C2       C     0.84375      0            0.333334     0
C3       C     0.8125       0            0.348485     0
C4       C     0.84375      0            0.30303      0
C1       C     0.8125       0            0.378788     0
C2       C     0.84375      0            0.424243     0
C3       C     0.8125       0            0.439394     0
C4       C     0.84375      0            0.393939     0
C1       C     0.8125       0            0.469697     0
C2       C     0.84375      0            0.515152     0
C3       C     0.8125       0            0.530303     0
C4       C     0.84375      0            0.484848     0
C1       C     0.8125       0            0.560606     0
C2       C     0.84375      0            0.606061     0
C3       C     0.8125       0            0.621212     0
C4       C     0.84375      0            0.575757     0
C1       C     0.8125       0            0.651515     0
C2       C     0.84375      0            0.69697      0
C3       C     0.8125       0            0.712121     0
C4       C     0.84375      0            0.666666     0
C1       C     0.8125       0            0.742425     0
C2       C     0.84375      0            0.787879     0
C3       C     0.8125       0            0.80303      0
C4       C     0.84375      0            0.757575     0
C1       C     0.8125       0            0.833334     0
C2       C     0.84375      0            0.878788     0
C3       C     0.8125       0            0.893939     0
C4       C     0.84375      0            0.848485     0
C1       C     0.8125       0            0.924243     0
C2       C     0.84375      0            0.969697     0
C3       C     0.8125       0            0.984848     0
C4       C     0.84375      0            0.939394     0
C1       C     0.8125       0.333333     0.0151518    0
C2       C     0.84375      0.333333     0.0606064    0
C3       C     0.8125       0.333333     0.0757573    0
C4       C     0.84375      0.333333     0.0303027    0
C1       C     0.8125       0.333333     0.106061     0
C2       C     0.84375      0.333333     0.151515     0
C3       C     0.8125       0.333333     0.166666     0
C4       C     0.84375      0.333333     0.121212     0
C1       C     0.8125       0.333333     0.19697      0
C2       C     0.84375      0.333333     0.242425     0
C3       C     0.8125       0.333333     0.257575     0
C4       C     0.84375      0.333333     0.212121     0
C1       C     0.8125       0.333333     0.287879     0
C2       C     0.84375      0.333333     0.333334     0
C3       C     0.8125       0.333333     0.348485     0
C4       C     0.84375      0.333333     0.30303      0
C1       C     0.8125       0.333333     0.378788     0
C2       C     0.84375      0.333333     0.424243     0
C3       C     0.8125       0.333333     0.439394     0
C4       C     0.84375      0.333333     0.393939     0
C1       C     0.8125       0.333333     0.469697     0
C2       C     0.84375      0.333333     0.515152     0
C3       C     0.8125       0.333333     0.530303     0
C4       C     0.84375      0.333333     0.484848     0
C1       C     0.8125       0.333333     0.560606     0
C2       C     0.84375      0.333333     0.606061     0
C3       C     0.8125       0.333333     0.621212     0
C4       C     0.84375      0.333333     0.575757     0
C1       C     0.8125       0.333333     0.651515     0
C2       C     0.84375      0.333333     0.69697      0
C3       C     0.8125       0.333333     0.712121     0
C4       C     0.84375      0.333333     0.666666     0
C1       C     0.8125       0.333333     0.742425     0
C2       C     0.84375      0.333333     0.787879     0
C3       C     0.8125       0.333333     0.80303      0
C4       C     0.84375      0.333333     0.757575     0
C1       C     0.8125       0.333333     0.833334     0
C2       C     0.84375      0.333333     0.878788     0
C3       C     0.8125       0.333333     0.893939     0
C4       C     0.84375      0.333333     0.848485     0
C1       C     0.8125       0.333333     0.924243     0
C2       C     0.84375      0.333333     0.969697     0
C3       C     0.8125       0.333333     0.984848     0
C4       C     0.84375      0.333333     0.939394     0
C1       C     0.8125       0.666667     0.0151518    0
C2       C     0.84375      0.666667     0.0606064    0
C3       C     0.8125       0.666667     0.0757573    0
C4       C     0.84375      0.666667     0.0303027    0
C1       C     0.8125       0.666667     0.106061     0
C2       C     0.84375      0.666667     0.151515     0
C3       C     0.8125       0.666667     0.166666     0
C4       C     0.84375      0.666667     0.121212     0
C1       C     0.8125       0.666667     0.19697      0
C2       C     0.84375      0.666667     0.242425     0
C3       C     0.8125       0.666667     0.257575     0
C4       C     0.84375      0.666667     0.212121     0
C1       C     0.8125       0.666667     0.287879     0
C2       C     0.84375      0.666667     0.333334     0
C3       C     0.8125       0.666667     0.348485     0
C4       C     0.84375      0.666667     0.30303      0
C1       C     0.8125       0.666667     0.378788     0
C2       C     0.84375      0.666667     0.424243     0
C3       C     0.8125       0.666667     0.439394     0
C4       C     0.84375      0.666667     0.393939     0
C1       C     0.8125       0.666667     0.469697     0
C2       C     0.84375      0.666667     0.515152     0
C3       C     0.8125       0.666667     0.530303     0
C4       C     0.84375      0.666667     0.484848     0
C1       C     0.8125       0.666667     0.560606     0
C2       C     0.84375      0.666667     0.606061     0
C3       C     0.8125       0.666667     0.621212     0
C4       C     0.84375      0.666667     0.575757     0
C1       C     0.8125       0.666667     0.651515     0
C2       C     0.84375      0.666667     0.69697      0
C3       C     0.8125       0.666667     0.712121     0
C4       C     0.84375      0.666667     0.666666     0
C1       C     0.8125       0.666667     0.742425     0
C2       C     0.84375      0.666667     0.787879     0
C3       C     0.8125       0.666667     0.80303      0
C4       C     0.84375      0.666667     0.757575     0
C1       C     0.8125       0.666667     0.833334     0
C2       C     0.84375      0.666667     0.878788     0
C3       C     0.8125       0.666667     0.893939     0
C4       C     0.84375      0.666667     0.848485     0
C1       C     0.8125       0.666667     0.924243     0
C2       C     0.84375      0.666667     0.969697     0
C3       C     0.8125       0.666667     0.984848     0
C4       C     0.84375      0.666667     0.939394     0
C1       C     0.875        0            0.0151518    0
C2       C     0.90625      0            0.0606064    0
C3       C     0.875        0            0.0757573    0
C4       C     0.90625      0            0.0303027    0
C1       C     0.875        0            0.106061     0
C2       C     0.90625      0            0.151515     0
C3       C     0.875        0            0.166666     0
C4       C     0.90625      0            0.121212     0
C1       C     0.875        0            0.19697      0
C2       C     0.90625      0            0.242425     0
C3       C     0.875        0            0.257575     0
C4       C     0.90625      0            0.212121     0
C1       C     0.875        0            0.287879     0
C2       C     0.90625      0            0.333334     0
C3       C     0.875        0            0.348485     0
C4       C     0.90625      0            0.30303      0
C1       C     0.875        0            0.378788     0
C2       C     0.90625      0            0.424243     0
C3       C     0.875        0            0.439394     0
C4       C     0.90625      0            0.393939     0
C1       C     0.875        0            0.469697     0
C2       C     0.90625      0            0.515152     0
C3       C     0.875        0            0.530303     0
C4       C     0.90625      0            0.484848     0
C1       C     0.875        0            0.560606     0
C2       C     0.90625      0            0.606061     0
C3       C     0.875        0            0.621212     0
C4       C     0.90625      0            0.575757     0
C1       C     0.875        0            0.651515     0
C2       C     0.90625      0            0.69697      0
C3       C     0.875        0            0.712121     0
C4       C     0.90625      0            0.666666     0
C1       C     0.875        0            0.742425     0
C2       C     0.90625      0            0.787879     0
C3       C     0.875        0            0.80303      0
C4       C     0.90625      0            0.757575     0
C1       C     0.875        0            0.833334     0
C2       C     0.90625      0            0.878788     0
C3       C     0.875        0            0.893939     0
C4       C     0.90625      0            0.848485     0
C1       C     0.875        0            0.924243     0
C2       C     0.90625      0            0.969697     0
C3       C     0.875        0            0.984848     0
C4       C     0.90625      0            0.939394     0
C1       C     0.875        0.333333     0.0151518    0
C2       C     0.90625      0.333333     0.0606064    0
C3       C     0.875        0.333333     0.0757573    0
C4       C     0.90625      0.333333     0.0303027    0
C1       C     0.875        0.333333     0.106061     0
C2       C     0.90625      0.333333     0.151515     0
C3       C     0.875        0.333333     0.166666     0
C4       C     0.90625      0.333333     0.121212     0
C1       C     0.875        0.333333     0.19697      0
C2       C     0.90625      0.333333     0.242425     0
C3       C     0.875        0.333333     0.257575     0
C4       C     0.90625      0.333333     0.212121     0
C1       C     0.875        0.333333     0.287879     0
C2       C     0.90625      0.333333     0.333334     0
C3       C     0.875        0.333333     0.348485     0
C4       C     0.90625      0.333333     0.30303      0
C1       C     0.875        0.333333     0.378788     0
C2       C     0.90625      0.333333     0.424243     0
C3       C     0.875        0.333333     0.439394     0
C4       C     0.90625      0.333333     0.393939     0
C1       C     0.875        0.333333     0.469697     0
C2       C     0.90625      0.333333     0.515152     0
C3       C     0.875        0.333333     0.530303     0
C4       C     0.90625      0.333333     0.484848     0
C1       C     0.875        0.333333     0.560606     0
C2       C     0.90625      0.333333     0.606061     0
C3       C     0.875        0.333333     0.621212     0
C4       C     0.90625      0.333333     0.575757     0
C1       C     0.875        0.333333     0.651515     0
C2       C     0.90625      0.333333     0.69697      0
C3       C     0.875        0.333333     0.712121     0
C4       C     0.90625      0.333333     0.666666     0
C1       C     0.875        0.333333     0.742425     0
C2       C     0.90625      0.333333     0.787879     0
C3       C     0.875        0.333333     0.80303      0
C4       C     0.90625      0.333333     0.757575     0
C1       C     0.875        0.333333     0.833334     0
C2       C     0.90625      0.333333     0.878788     0
C3       C     0.875        0.333333     0.893939     0
C4       C     0.90625      0.333333     0.848485     0
C1       C     0.875        0.333333     0.924243     0
C2       C     0.90625      0.333333     0.969697     0
C3       C     0.875        0.333333     0.984848     0
C4       C     0.90625      0.333333     0.939394     0
C1       C     0.875        0.666667     0.0151518    0
C2       C     0.90625      0.666667     0.0606064    0
C3       C     0.875        0.666667     0.0757573    0
C4       C     0.90625      0.666667     0.0303027    0
C1       C     0.875        0.666667     0.106061     0
C2       C     0.90625      0.666667     0.151515     0
C3       C     0.875        0.666667     0.166666     0
C4       C     0.90625      0.666667     0.121212     0
C1       C     0.875        0.666667     0.19697      0
C2       C     0.90625      0.666667     0.242425     0
C3       C     0.875        0.666667     0.257575     0
C4       C     0.90625      0.666667     0.212121     0
C1       C     0.875        0.666667     0.287879     0
C2       C     0.90625      0.666667     0.333334     0
C3       C     0.875        0.666667     0.348485     0
C4       C     0.90625      0.666667     0.30303      0
C1       C     0.875        0.666667     0.378788     0
C2       C     0.90625      0.666667     0.424243     0
C3       C     0.875        0.666667     0.439394     0
C4       C     0.90625      0.666667     0.393939     0
C1       C     0.875        0.666667     0.469697     0
C2       C     0.90625      0.666667     0.515152     0
C3       C     0.875        0.666667     0.530303     0
C4       C     0.90625      0.666667     0.484848     0
C1       C     0.875        0.666667     0.560606     0
C2       C     0.90625      0.666667     0.606061     0
C3       C     0.875        0.666667     0.621212     0
C4       C     0.90625      0.666667     0.575757     0
C1       C     0.875        0.666667     0.651515     0
C2       C     0.90625      0.666667     0.69697      0
C3       C     0.875        0.666667     0.712121     0
C4       C     0.90625      0.666667     0.666666     0
C1       C     0.875        0.666667     0.742425     0
C2       C     0.90625      0.666667     0.787879     0
C3       C     0.875        0.666667     0.80303      0
C4       C     0.90625      0.666667     0.757575     0
C1       C     0.875        0.666667     0.833334     0
C2       C     0.90625      0.666667     0.878788     0
C3       C     0.875        0.666667     0.893939     0
C4       C     0.90625      0.666667     0.848485     0
C1       C     0.875        0.666667     0.924243     0
C2       C     0.90625      0.666667     0.969697     0
C3       C     0.875        0.666667     0.984848     0
C4       C     0.90625      0.666667     0.939394     0
C1       C     0.9375       0            0.0151518    0
C2       C     0.96875      0            0.0606064    0
C3       C     0.9375       0            0.0757573    0
C4       C     0.96875      0            0.0303027    0
C1       C     0.9375       0            0.106061     0
C2       C     0.96875      0            0.151515     0
C3       C     0.9375       0            0.166666     0
C4       C     0.96875      0            0.121212     0
C1       C     0.9375       0            0.19697      0
C2       C     0.96875      0            0.242425     0
C3       C     0.9375       0            0.257575     0
C4       C     0.96875      0            0.212121     0
C1       C     0.9375       0            0.287879     0
C2       C     0.96875      0            0.333334     0
C3       C     0.9375       0            0.348485     0
C4       C     0.96875      0            0.30303      0
C1       C     0.9375       0            0.378788     0
C2       C     0.96875      0            0.424243     0
C3       C     0.9375       0            0.439394     0
C4       C     0.96875      0            0.393939     0
C1       C     0.9375       0            0.469697     0
C2       C     0.96875      0            0.515152     0
C3       C     0.9375       0            0.530303     0
C4       C     0.96875      0            0.484848     0
C1       C     0.9375       0            0.560606     0
C2       C     0.96875      0            0.606061     0
C3       C     0.9375       0            0.621212     0
C4       C     0.96875      0            0.575757     0
C1       C     0.9375       0            0.651515     0
C2       C     0.96875      0            0.69697      0
C3       C     0.9375       0            0.712121     0
C4       C     0.96875      0            0.666666     0
C1       C     0.9375       0            0.742425     0
C2       C     0.96875      0            0.787879     0
C3       C     0.9375       0            0.80303      0
C4       C     0.96875      0            0.757575     0
C1       C     0.9375       0            0.833334     0
C2       C     0.96875      0            0.878788     0
C3       C     0.9375       0            0.893939     0
C4       C     0.96875      0            0.848485     0
C1       C     0.9375       0            0.924243     0
C2       C     0.96875      0            0.969697     0
C3       C     0.9375       0            0.984848     0
C4       C     0.96875      0            0.939394     0
C1       C     0.9375       0.333333     0.0151518    0
C2       C     0.96875      0.333333     0.0606064    0
C3       C     0.9375       0.333333     0.0757573    0
C4       C     0.96875      0.333333     0.0303027    0
C1       C     0.9375       0.333333     0.106061     0
C2       C     0.96875      0.333333     0.151515     0
C3       C     0.9375       0.333333     0.166666     0
C4       C     0.96875      0.333333     0.121212     0
C1       C     0.9375       0.333333     0.19697      0
C2       C     0.96875      0.333333     0.242425     0
C3       C     0.9375       0.333333     0.257575     0
C4       C     0.96875      0.333333     0.212121     0
C1       C     0.9375       0.333333     0.287879     0
C2       C     0.96875      0.333333     0.333334     0
C3       C     0.9375       0.333333     0.348485     0
C4       C     0.96875      0.333333     0.30303      0
C1       C     0.9375       0.333333     0.378788     0
C2       C     0.96875      0.333333     0.424243     0
C3       C     0.9375       0.333333     0.439394     0
C4       C     0.96875      0.333333     0.393939     0
C1       C     0.9375       0.333333     0.469697     0
C2       C     0.96875      0.333333     0.515152     0
C3       C     0.9375       0.333333     0.530303     0
C4       C     0.96875      0.333333     0.484848     0
C1       C     0.9375       0.333333     0.560606     0
C2       C     0.96875      0.333333     0.606061     0
C3       C     0.9375       0.333333     0.621212     0
C4       C     0.96875      0.333333     0.575757     0
C1       C     0.9375       0.333333     0.651515     0
C2       C     0.96875      0.333333     0.69697      0
C3       C     0.9375       0.333333     0.712121     0
C4       C     0.96875      0.333333     0.666666     0
C1       C     0.9375       0.333333     0.742425     0
C2       C     0.96875      0.333333     0.787879     0
C3       C     0.9375       0.333333     0.80303      0
C4       C     0.96875      0.333333     0.757575     0
C1       C     0.9375       0.333333     0.833334     0
C2       C     0.96875      0.333333     0.878788     0
C3       C     0.9375       0.333333     0.893939     0
C4       C     0.96875      0.333333     0.848485     0
C1       C     0.9375       0.333333     0.924243     0
C2       C     0.96875      0.333333     0.969697     0
C3       C     0.9375       0.333333     0.984848     0
C4       C     0.96875      0.333333     0.939394     0
C1       C     0.9375       0.666667     0.0151518    0
C2       C     0.96875      0.666667     0.0606064    0
C3       C     0.9375       0.666667     0.0757573    0
C4       C     0.96875      0.666667     0.0303027    0
C1       C     0.9375       0.666667     0.106061     0
C2       C     0.96875      0.666667     0.151515     0
C3       C     0.9375       0.666667     0.166666     0
C4       C     0.96875      0.666667     0.121212     0
C1       C     0.9375       0.666667     0.19697      0
C2       C     0.96875      0.666667     0.242425     0
C3       C     0.9375       0.666667     0.257575     0
C4       C     0.96875      0.666667     0.212121     0
C1       C     0.9375       0.666667     0.287879     0
C2       C     0.96875      0.666667     0.333334     0
C3       C     0.9375       0.666667     0.348485     0
C4       C     0.96875      0.666667     0.30303      0
C1       C     0.9375       0.666667     0.378788     0
C2       C     0.96875      0.666667     0.424243     0
C3       C     0.9375       0.666667     0.439394     0
C4       C     0.96875      0.666667     0.393939     0
C1       C     0.9375       0.666667     0.469697     0
C2       C     0.96875      0.666667     0.515152     0
C3       C     0.9375       0.666667     0.530303     0
C4       C     0.96875      0.666667     0.484848     0
C1       C     0.9375       0.666667     0.560606     0
C2       C     0.96875      0.666667     0.606061     0
C3       C     0.9375       0.666667     0.621212     0
C4       C     0.96875      0.666667     0.575757     0
C1       C     0.9375       0.666667     0.651515     0
C2       C     0.96875      0.666667     0.69697      0
C3       C     0.9375       0.666667     0.712121     0
C4       C     0.96875      0.666667     0.666666     0
C1       C     0.9375       0.666667     0.742425     0
C2       C     0.96875      0.666667     0.787879     0
C3       C     0.9375       0.666667     0.80303      0
C4       C     0.96875      0.666667     0.757575     0
C1       C     0.9375       0.666667     0.833334     0
C2       C     0.96875      0.666667     0.878788     0
C3       C     0.9375       0.666667     0.893939     0
C4       C     0.96875      0.666667     0.848485     0
C1       C     0.9375       0.666667     0.924243     0
C2       C     0.96875      0.666667     0.969697     0
C3       C     0.9375       0.666667     0.984848     0
C4       C     0.96875      0.666667     0.939394     0


