data_graphite_ortho

_audit_creation_method RASPA-1.0
_audit_creation_date 2012-1-21
_audit_author_name 'David Dubbeldam'

_cell_length_a    39.36
_cell_length_b    34.08
_cell_length_c    34.08
_cell_angle_alpha 90
_cell_angle_beta  90
_cell_angle_gamma 90
_cell_volume      45714.5

_symmetry_cell_setting          triclinic
_symmetry_space_group_name_Hall 'P 1'
_symmetry_space_group_name_H-M  'P 1'
_symmetry_Int_Tables_number     1

_symmetry_equiv_pos_as_xyz 'x,y,z'

loop_
_atom_site_label
_atom_site_type_symbol
_atom_site_fract_x
_atom_site_fract_y
_atom_site_fract_z
_atom_site_charge
C1       C     0            0.0208338    0            0
C2       C     0.03125      0.0833337    0            0
C3       C     0            0.104166     0            0
C4       C     0.03125      0.0416663    0            0
C1       C     0            0.0208338    0.333333     0
C2       C     0.03125      0.0833338    0.333333     0
C3       C     0            0.104166     0.333333     0
C4       C     0.03125      0.0416663    0.333333     0
C1       C     0            0.0208338    0.666667     0
C2       C     0.03125      0.0833337    0.666667     0
C3       C     0            0.104166     0.666667     0
C4       C     0.03125      0.0416663    0.666667     0
C1       C     0            0.145834     0            0
C2       C     0.03125      0.208334     0            0
C3       C     0            0.229166     0            0
C4       C     0.03125      0.166666     0            0
C1       C     0            0.145834     0.333333     0
C2       C     0.03125      0.208334     0.333333     0
C3       C     0            0.229166     0.333333     0
C4       C     0.03125      0.166666     0.333333     0
C1       C     0            0.145834     0.666667     0
C2       C     0.03125      0.208334     0.666667     0
C3       C     0            0.229166     0.666667     0
C4       C     0.03125      0.166666     0.666667     0
C1       C     0            0.270834     0            0
C2       C     0.03125      0.333334     0            0
C3       C     0            0.354166     0            0
C4       C     0.03125      0.291666     0            0
C1       C     0            0.270834     0.333333     0
C2       C     0.03125      0.333334     0.333333     0
C3       C     0            0.354166     0.333333     0
C4       C     0.03125      0.291666     0.333333     0
C1       C     0            0.270834     0.666667     0
C2       C     0.03125      0.333334     0.666667     0
C3       C     0            0.354166     0.666667     0
C4       C     0.03125      0.291666     0.666667     0
C1       C     0            0.395834     0            0
C2       C     0.03125      0.458334     0            0
C3       C     0            0.479166     0            0
C4       C     0.03125      0.416666     0            0
C1       C     0            0.395834     0.333333     0
C2       C     0.03125      0.458334     0.333333     0
C3       C     0            0.479166     0.333333     0
C4       C     0.03125      0.416666     0.333333     0
C1       C     0            0.395834     0.666667     0
C2       C     0.03125      0.458334     0.666667     0
C3       C     0            0.479166     0.666667     0
C4       C     0.03125      0.416666     0.666667     0
C1       C     0            0.520834     0            0
C2       C     0.03125      0.583334     0            0
C3       C     0            0.604166     0            0
C4       C     0.03125      0.541666     0            0
C1       C     0            0.520834     0.333333     0
C2       C     0.03125      0.583334     0.333333     0
C3       C     0            0.604166     0.333333     0
C4       C     0.03125      0.541666     0.333333     0
C1       C     0            0.520834     0.666667     0
C2       C     0.03125      0.583334     0.666667     0
C3       C     0            0.604166     0.666667     0
C4       C     0.03125      0.541666     0.666667     0
C1       C     0            0.645834     0            0
C2       C     0.03125      0.708334     0            0
C3       C     0            0.729166     0            0
C4       C     0.03125      0.666666     0            0
C1       C     0            0.645834     0.333333     0
C2       C     0.03125      0.708334     0.333333     0
C3       C     0            0.729166     0.333333     0
C4       C     0.03125      0.666666     0.333333     0
C1       C     0            0.645834     0.666667     0
C2       C     0.03125      0.708334     0.666667     0
C3       C     0            0.729166     0.666667     0
C4       C     0.03125      0.666666     0.666667     0
C1       C     0            0.770834     0            0
C2       C     0.03125      0.833334     0            0
C3       C     0            0.854166     0            0
C4       C     0.03125      0.791666     0            0
C1       C     0            0.770834     0.333333     0
C2       C     0.03125      0.833334     0.333333     0
C3       C     0            0.854166     0.333333     0
C4       C     0.03125      0.791666     0.333333     0
C1       C     0            0.770834     0.666667     0
C2       C     0.03125      0.833334     0.666667     0
C3       C     0            0.854166     0.666667     0
C4       C     0.03125      0.791666     0.666667     0
C1       C     0            0.895834     0            0
C2       C     0.03125      0.958334     0            0
C3       C     0            0.979166     0            0
C4       C     0.03125      0.916666     0            0
C1       C     0            0.895834     0.333333     0
C2       C     0.03125      0.958334     0.333333     0
C3       C     0            0.979166     0.333333     0
C4       C     0.03125      0.916666     0.333333     0
C1       C     0            0.895834     0.666667     0
C2       C     0.03125      0.958334     0.666667     0
C3       C     0            0.979166     0.666667     0
C4       C     0.03125      0.916666     0.666667     0
C1       C     0.0625       0.0208338    0            0
C2       C     0.09375      0.0833337    0            0
C3       C     0.0625       0.104166     0            0
C4       C     0.09375      0.0416663    0            0
C1       C     0.0625       0.0208338    0.333333     0
C2       C     0.09375      0.0833338    0.333333     0
C3       C     0.0625       0.104166     0.333333     0
C4       C     0.09375      0.0416663    0.333333     0
C1       C     0.0625       0.0208338    0.666667     0
C2       C     0.09375      0.0833337    0.666667     0
C3       C     0.0625       0.104166     0.666667     0
C4       C     0.09375      0.0416663    0.666667     0
C1       C     0.0625       0.145834     0            0
C2       C     0.09375      0.208334     0            0
C3       C     0.0625       0.229166     0            0
C4       C     0.09375      0.166666     0            0
C1       C     0.0625       0.145834     0.333333     0
C2       C     0.09375      0.208334     0.333333     0
C3       C     0.0625       0.229166     0.333333     0
C4       C     0.09375      0.166666     0.333333     0
C1       C     0.0625       0.145834     0.666667     0
C2       C     0.09375      0.208334     0.666667     0
C3       C     0.0625       0.229166     0.666667     0
C4       C     0.09375      0.166666     0.666667     0
C1       C     0.0625       0.270834     0            0
C2       C     0.09375      0.333334     0            0
C3       C     0.0625       0.354166     0            0
C4       C     0.09375      0.291666     0            0
C1       C     0.0625       0.270834     0.333333     0
C2       C     0.09375      0.333334     0.333333     0
C3       C     0.0625       0.354166     0.333333     0
C4       C     0.09375      0.291666     0.333333     0
C1       C     0.0625       0.270834     0.666667     0
C2       C     0.09375      0.333334     0.666667     0
C3       C     0.0625       0.354166     0.666667     0
C4       C     0.09375      0.291666     0.666667     0
C1       C     0.0625       0.395834     0            0
C2       C     0.09375      0.458334     0            0
C3       C     0.0625       0.479166     0            0
C4       C     0.09375      0.416666     0            0
C1       C     0.0625       0.395834     0.333333     0
C2       C     0.09375      0.458334     0.333333     0
C3       C     0.0625       0.479166     0.333333     0
C4       C     0.09375      0.416666     0.333333     0
C1       C     0.0625       0.395834     0.666667     0
C2       C     0.09375      0.458334     0.666667     0
C3       C     0.0625       0.479166     0.666667     0
C4       C     0.09375      0.416666     0.666667     0
C1       C     0.0625       0.520834     0            0
C2       C     0.09375      0.583334     0            0
C3       C     0.0625       0.604166     0            0
C4       C     0.09375      0.541666     0            0
C1       C     0.0625       0.520834     0.333333     0
C2       C     0.09375      0.583334     0.333333     0
C3       C     0.0625       0.604166     0.333333     0
C4       C     0.09375      0.541666     0.333333     0
C1       C     0.0625       0.520834     0.666667     0
C2       C     0.09375      0.583334     0.666667     0
C3       C     0.0625       0.604166     0.666667     0
C4       C     0.09375      0.541666     0.666667     0
C1       C     0.0625       0.645834     0            0
C2       C     0.09375      0.708334     0            0
C3       C     0.0625       0.729166     0            0
C4       C     0.09375      0.666666     0            0
C1       C     0.0625       0.645834     0.333333     0
C2       C     0.09375      0.708334     0.333333     0
C3       C     0.0625       0.729166     0.333333     0
C4       C     0.09375      0.666666     0.333333     0
C1       C     0.0625       0.645834     0.666667     0
C2       C     0.09375      0.708334     0.666667     0
C3       C     0.0625       0.729166     0.666667     0
C4       C     0.09375      0.666666     0.666667     0
C1       C     0.0625       0.770834     0            0
C2       C     0.09375      0.833334     0            0
C3       C     0.0625       0.854166     0            0
C4       C     0.09375      0.791666     0            0
C1       C     0.0625       0.770834     0.333333     0
C2       C     0.09375      0.833334     0.333333     0
C3       C     0.0625       0.854166     0.333333     0
C4       C     0.09375      0.791666     0.333333     0
C1       C     0.0625       0.770834     0.666667     0
C2       C     0.09375      0.833334     0.666667     0
C3       C     0.0625       0.854166     0.666667     0
C4       C     0.09375      0.791666     0.666667     0
C1       C     0.0625       0.895834     0            0
C2       C     0.09375      0.958334     0            0
C3       C     0.0625       0.979166     0            0
C4       C     0.09375      0.916666     0            0
C1       C     0.0625       0.895834     0.333333     0
C2       C     0.09375      0.958334     0.333333     0
C3       C     0.0625       0.979166     0.333333     0
C4       C     0.09375      0.916666     0.333333     0
C1       C     0.0625       0.895834     0.666667     0
C2       C     0.09375      0.958334     0.666667     0
C3       C     0.0625       0.979166     0.666667     0
C4       C     0.09375      0.916666     0.666667     0
C1       C     0.125        0.0208338    0            0
C2       C     0.15625      0.0833337    0            0
C3       C     0.125        0.104166     0            0
C4       C     0.15625      0.0416663    0            0
C1       C     0.125        0.0208338    0.333333     0
C2       C     0.15625      0.0833338    0.333333     0
C3       C     0.125        0.104166     0.333333     0
C4       C     0.15625      0.0416663    0.333333     0
C1       C     0.125        0.0208338    0.666667     0
C2       C     0.15625      0.0833337    0.666667     0
C3       C     0.125        0.104166     0.666667     0
C4       C     0.15625      0.0416663    0.666667     0
C1       C     0.125        0.145834     0            0
C2       C     0.15625      0.208334     0            0
C3       C     0.125        0.229166     0            0
C4       C     0.15625      0.166666     0            0
C1       C     0.125        0.145834     0.333333     0
C2       C     0.15625      0.208334     0.333333     0
C3       C     0.125        0.229166     0.333333     0
C4       C     0.15625      0.166666     0.333333     0
C1       C     0.125        0.145834     0.666667     0
C2       C     0.15625      0.208334     0.666667     0
C3       C     0.125        0.229166     0.666667     0
C4       C     0.15625      0.166666     0.666667     0
C1       C     0.125        0.270834     0            0
C2       C     0.15625      0.333334     0            0
C3       C     0.125        0.354166     0            0
C4       C     0.15625      0.291666     0            0
C1       C     0.125        0.270834     0.333333     0
C2       C     0.15625      0.333334     0.333333     0
C3       C     0.125        0.354166     0.333333     0
C4       C     0.15625      0.291666     0.333333     0
C1       C     0.125        0.270834     0.666667     0
C2       C     0.15625      0.333334     0.666667     0
C3       C     0.125        0.354166     0.666667     0
C4       C     0.15625      0.291666     0.666667     0
C1       C     0.125        0.395834     0            0
C2       C     0.15625      0.458334     0            0
C3       C     0.125        0.479166     0            0
C4       C     0.15625      0.416666     0            0
C1       C     0.125        0.395834     0.333333     0
C2       C     0.15625      0.458334     0.333333     0
C3       C     0.125        0.479166     0.333333     0
C4       C     0.15625      0.416666     0.333333     0
C1       C     0.125        0.395834     0.666667     0
C2       C     0.15625      0.458334     0.666667     0
C3       C     0.125        0.479166     0.666667     0
C4       C     0.15625      0.416666     0.666667     0
C1       C     0.125        0.520834     0            0
C2       C     0.15625      0.583334     0            0
C3       C     0.125        0.604166     0            0
C4       C     0.15625      0.541666     0            0
C1       C     0.125        0.520834     0.333333     0
C2       C     0.15625      0.583334     0.333333     0
C3       C     0.125        0.604166     0.333333     0
C4       C     0.15625      0.541666     0.333333     0
C1       C     0.125        0.520834     0.666667     0
C2       C     0.15625      0.583334     0.666667     0
C3       C     0.125        0.604166     0.666667     0
C4       C     0.15625      0.541666     0.666667     0
C1       C     0.125        0.645834     0            0
C2       C     0.15625      0.708334     0            0
C3       C     0.125        0.729166     0            0
C4       C     0.15625      0.666666     0            0
C1       C     0.125        0.645834     0.333333     0
C2       C     0.15625      0.708334     0.333333     0
C3       C     0.125        0.729166     0.333333     0
C4       C     0.15625      0.666666     0.333333     0
C1       C     0.125        0.645834     0.666667     0
C2       C     0.15625      0.708334     0.666667     0
C3       C     0.125        0.729166     0.666667     0
C4       C     0.15625      0.666666     0.666667     0
C1       C     0.125        0.770834     0            0
C2       C     0.15625      0.833334     0            0
C3       C     0.125        0.854166     0            0
C4       C     0.15625      0.791666     0            0
C1       C     0.125        0.770834     0.333333     0
C2       C     0.15625      0.833334     0.333333     0
C3       C     0.125        0.854166     0.333333     0
C4       C     0.15625      0.791666     0.333333     0
C1       C     0.125        0.770834     0.666667     0
C2       C     0.15625      0.833334     0.666667     0
C3       C     0.125        0.854166     0.666667     0
C4       C     0.15625      0.791666     0.666667     0
C1       C     0.125        0.895834     0            0
C2       C     0.15625      0.958334     0            0
C3       C     0.125        0.979166     0            0
C4       C     0.15625      0.916666     0            0
C1       C     0.125        0.895834     0.333333     0
C2       C     0.15625      0.958334     0.333333     0
C3       C     0.125        0.979166     0.333333     0
C4       C     0.15625      0.916666     0.333333     0
C1       C     0.125        0.895834     0.666667     0
C2       C     0.15625      0.958334     0.666667     0
C3       C     0.125        0.979166     0.666667     0
C4       C     0.15625      0.916666     0.666667     0
C1       C     0.1875       0.0208338    0            0
C2       C     0.21875      0.0833337    0            0
C3       C     0.1875       0.104166     0            0
C4       C     0.21875      0.0416663    0            0
C1       C     0.1875       0.0208338    0.333333     0
C2       C     0.21875      0.0833338    0.333333     0
C3       C     0.1875       0.104166     0.333333     0
C4       C     0.21875      0.0416663    0.333333     0
C1       C     0.1875       0.0208338    0.666667     0
C2       C     0.21875      0.0833337    0.666667     0
C3       C     0.1875       0.104166     0.666667     0
C4       C     0.21875      0.0416663    0.666667     0
C1       C     0.1875       0.145834     0            0
C2       C     0.21875      0.208334     0            0
C3       C     0.1875       0.229166     0            0
C4       C     0.21875      0.166666     0            0
C1       C     0.1875       0.145834     0.333333     0
C2       C     0.21875      0.208334     0.333333     0
C3       C     0.1875       0.229166     0.333333     0
C4       C     0.21875      0.166666     0.333333     0
C1       C     0.1875       0.145834     0.666667     0
C2       C     0.21875      0.208334     0.666667     0
C3       C     0.1875       0.229166     0.666667     0
C4       C     0.21875      0.166666     0.666667     0
C1       C     0.1875       0.270834     0            0
C2       C     0.21875      0.333334     0            0
C3       C     0.1875       0.354166     0            0
C4       C     0.21875      0.291666     0            0
C1       C     0.1875       0.270834     0.333333     0
C2       C     0.21875      0.333334     0.333333     0
C3       C     0.1875       0.354166     0.333333     0
C4       C     0.21875      0.291666     0.333333     0
C1       C     0.1875       0.270834     0.666667     0
C2       C     0.21875      0.333334     0.666667     0
C3       C     0.1875       0.354166     0.666667     0
C4       C     0.21875      0.291666     0.666667     0
C1       C     0.1875       0.395834     0            0
C2       C     0.21875      0.458334     0            0
C3       C     0.1875       0.479166     0            0
C4       C     0.21875      0.416666     0            0
C1       C     0.1875       0.395834     0.333333     0
C2       C     0.21875      0.458334     0.333333     0
C3       C     0.1875       0.479166     0.333333     0
C4       C     0.21875      0.416666     0.333333     0
C1       C     0.1875       0.395834     0.666667     0
C2       C     0.21875      0.458334     0.666667     0
C3       C     0.1875       0.479166     0.666667     0
C4       C     0.21875      0.416666     0.666667     0
C1       C     0.1875       0.520834     0            0
C2       C     0.21875      0.583334     0            0
C3       C     0.1875       0.604166     0            0
C4       C     0.21875      0.541666     0            0
C1       C     0.1875       0.520834     0.333333     0
C2       C     0.21875      0.583334     0.333333     0
C3       C     0.1875       0.604166     0.333333     0
C4       C     0.21875      0.541666     0.333333     0
C1       C     0.1875       0.520834     0.666667     0
C2       C     0.21875      0.583334     0.666667     0
C3       C     0.1875       0.604166     0.666667     0
C4       C     0.21875      0.541666     0.666667     0
C1       C     0.1875       0.645834     0            0
C2       C     0.21875      0.708334     0            0
C3       C     0.1875       0.729166     0            0
C4       C     0.21875      0.666666     0            0
C1       C     0.1875       0.645834     0.333333     0
C2       C     0.21875      0.708334     0.333333     0
C3       C     0.1875       0.729166     0.333333     0
C4       C     0.21875      0.666666     0.333333     0
C1       C     0.1875       0.645834     0.666667     0
C2       C     0.21875      0.708334     0.666667     0
C3       C     0.1875       0.729166     0.666667     0
C4       C     0.21875      0.666666     0.666667     0
C1       C     0.1875       0.770834     0            0
C2       C     0.21875      0.833334     0            0
C3       C     0.1875       0.854166     0            0
C4       C     0.21875      0.791666     0            0
C1       C     0.1875       0.770834     0.333333     0
C2       C     0.21875      0.833334     0.333333     0
C3       C     0.1875       0.854166     0.333333     0
C4       C     0.21875      0.791666     0.333333     0
C1       C     0.1875       0.770834     0.666667     0
C2       C     0.21875      0.833334     0.666667     0
C3       C     0.1875       0.854166     0.666667     0
C4       C     0.21875      0.791666     0.666667     0
C1       C     0.1875       0.895834     0            0
C2       C     0.21875      0.958334     0            0
C3       C     0.1875       0.979166     0            0
C4       C     0.21875      0.916666     0            0
C1       C     0.1875       0.895834     0.333333     0
C2       C     0.21875      0.958334     0.333333     0
C3       C     0.1875       0.979166     0.333333     0
C4       C     0.21875      0.916666     0.333333     0
C1       C     0.1875       0.895834     0.666667     0
C2       C     0.21875      0.958334     0.666667     0
C3       C     0.1875       0.979166     0.666667     0
C4       C     0.21875      0.916666     0.666667     0
C1       C     0.25         0.0208338    0            0
C2       C     0.28125      0.0833337    0            0
C3       C     0.25         0.104166     0            0
C4       C     0.28125      0.0416663    0            0
C1       C     0.25         0.0208338    0.333333     0
C2       C     0.28125      0.0833338    0.333333     0
C3       C     0.25         0.104166     0.333333     0
C4       C     0.28125      0.0416663    0.333333     0
C1       C     0.25         0.0208338    0.666667     0
C2       C     0.28125      0.0833337    0.666667     0
C3       C     0.25         0.104166     0.666667     0
C4       C     0.28125      0.0416663    0.666667     0
C1       C     0.25         0.145834     0            0
C2       C     0.28125      0.208334     0            0
C3       C     0.25         0.229166     0            0
C4       C     0.28125      0.166666     0            0
C1       C     0.25         0.145834     0.333333     0
C2       C     0.28125      0.208334     0.333333     0
C3       C     0.25         0.229166     0.333333     0
C4       C     0.28125      0.166666     0.333333     0
C1       C     0.25         0.145834     0.666667     0
C2       C     0.28125      0.208334     0.666667     0
C3       C     0.25         0.229166     0.666667     0
C4       C     0.28125      0.166666     0.666667     0
C1       C     0.25         0.270834     0            0
C2       C     0.28125      0.333334     0            0
C3       C     0.25         0.354166     0            0
C4       C     0.28125      0.291666     0            0
C1       C     0.25         0.270834     0.333333     0
C2       C     0.28125      0.333334     0.333333     0
C3       C     0.25         0.354166     0.333333     0
C4       C     0.28125      0.291666     0.333333     0
C1       C     0.25         0.270834     0.666667     0
C2       C     0.28125      0.333334     0.666667     0
C3       C     0.25         0.354166     0.666667     0
C4       C     0.28125      0.291666     0.666667     0
C1       C     0.25         0.395834     0            0
C2       C     0.28125      0.458334     0            0
C3       C     0.25         0.479166     0            0
C4       C     0.28125      0.416666     0            0
C1       C     0.25         0.395834     0.333333     0
C2       C     0.28125      0.458334     0.333333     0
C3       C     0.25         0.479166     0.333333     0
C4       C     0.28125      0.416666     0.333333     0
C1       C     0.25         0.395834     0.666667     0
C2       C     0.28125      0.458334     0.666667     0
C3       C     0.25         0.479166     0.666667     0
C4       C     0.28125      0.416666     0.666667     0
C1       C     0.25         0.520834     0            0
C2       C     0.28125      0.583334     0            0
C3       C     0.25         0.604166     0            0
C4       C     0.28125      0.541666     0            0
C1       C     0.25         0.520834     0.333333     0
C2       C     0.28125      0.583334     0.333333     0
C3       C     0.25         0.604166     0.333333     0
C4       C     0.28125      0.541666     0.333333     0
C1       C     0.25         0.520834     0.666667     0
C2       C     0.28125      0.583334     0.666667     0
C3       C     0.25         0.604166     0.666667     0
C4       C     0.28125      0.541666     0.666667     0
C1       C     0.25         0.645834     0            0
C2       C     0.28125      0.708334     0            0
C3       C     0.25         0.729166     0            0
C4       C     0.28125      0.666666     0            0
C1       C     0.25         0.645834     0.333333     0
C2       C     0.28125      0.708334     0.333333     0
C3       C     0.25         0.729166     0.333333     0
C4       C     0.28125      0.666666     0.333333     0
C1       C     0.25         0.645834     0.666667     0
C2       C     0.28125      0.708334     0.666667     0
C3       C     0.25         0.729166     0.666667     0
C4       C     0.28125      0.666666     0.666667     0
C1       C     0.25         0.770834     0            0
C2       C     0.28125      0.833334     0            0
C3       C     0.25         0.854166     0            0
C4       C     0.28125      0.791666     0            0
C1       C     0.25         0.770834     0.333333     0
C2       C     0.28125      0.833334     0.333333     0
C3       C     0.25         0.854166     0.333333     0
C4       C     0.28125      0.791666     0.333333     0
C1       C     0.25         0.770834     0.666667     0
C2       C     0.28125      0.833334     0.666667     0
C3       C     0.25         0.854166     0.666667     0
C4       C     0.28125      0.791666     0.666667     0
C1       C     0.25         0.895834     0            0
C2       C     0.28125      0.958334     0            0
C3       C     0.25         0.979166     0            0
C4       C     0.28125      0.916666     0            0
C1       C     0.25         0.895834     0.333333     0
C2       C     0.28125      0.958334     0.333333     0
C3       C     0.25         0.979166     0.333333     0
C4       C     0.28125      0.916666     0.333333     0
C1       C     0.25         0.895834     0.666667     0
C2       C     0.28125      0.958334     0.666667     0
C3       C     0.25         0.979166     0.666667     0
C4       C     0.28125      0.916666     0.666667     0
C1       C     0.3125       0.0208338    0            0
C2       C     0.34375      0.0833337    0            0
C3       C     0.3125       0.104166     0            0
C4       C     0.34375      0.0416663    0            0
C1       C     0.3125       0.0208338    0.333333     0
C2       C     0.34375      0.0833338    0.333333     0
C3       C     0.3125       0.104166     0.333333     0
C4       C     0.34375      0.0416663    0.333333     0
C1       C     0.3125       0.0208338    0.666667     0
C2       C     0.34375      0.0833337    0.666667     0
C3       C     0.3125       0.104166     0.666667     0
C4       C     0.34375      0.0416663    0.666667     0
C1       C     0.3125       0.145834     0            0
C2       C     0.34375      0.208334     0            0
C3       C     0.3125       0.229166     0            0
C4       C     0.34375      0.166666     0            0
C1       C     0.3125       0.145834     0.333333     0
C2       C     0.34375      0.208334     0.333333     0
C3       C     0.3125       0.229166     0.333333     0
C4       C     0.34375      0.166666     0.333333     0
C1       C     0.3125       0.145834     0.666667     0
C2       C     0.34375      0.208334     0.666667     0
C3       C     0.3125       0.229166     0.666667     0
C4       C     0.34375      0.166666     0.666667     0
C1       C     0.3125       0.270834     0            0
C2       C     0.34375      0.333334     0            0
C3       C     0.3125       0.354166     0            0
C4       C     0.34375      0.291666     0            0
C1       C     0.3125       0.270834     0.333333     0
C2       C     0.34375      0.333334     0.333333     0
C3       C     0.3125       0.354166     0.333333     0
C4       C     0.34375      0.291666     0.333333     0
C1       C     0.3125       0.270834     0.666667     0
C2       C     0.34375      0.333334     0.666667     0
C3       C     0.3125       0.354166     0.666667     0
C4       C     0.34375      0.291666     0.666667     0
C1       C     0.3125       0.395834     0            0
C2       C     0.34375      0.458334     0            0
C3       C     0.3125       0.479166     0            0
C4       C     0.34375      0.416666     0            0
C1       C     0.3125       0.395834     0.333333     0
C2       C     0.34375      0.458334     0.333333     0
C3       C     0.3125       0.479166     0.333333     0
C4       C     0.34375      0.416666     0.333333     0
C1       C     0.3125       0.395834     0.666667     0
C2       C     0.34375      0.458334     0.666667     0
C3       C     0.3125       0.479166     0.666667     0
C4       C     0.34375      0.416666     0.666667     0
C1       C     0.3125       0.520834     0            0
C2       C     0.34375      0.583334     0            0
C3       C     0.3125       0.604166     0            0
C4       C     0.34375      0.541666     0            0
C1       C     0.3125       0.520834     0.333333     0
C2       C     0.34375      0.583334     0.333333     0
C3       C     0.3125       0.604166     0.333333     0
C4       C     0.34375      0.541666     0.333333     0
C1       C     0.3125       0.520834     0.666667     0
C2       C     0.34375      0.583334     0.666667     0
C3       C     0.3125       0.604166     0.666667     0
C4       C     0.34375      0.541666     0.666667     0
C1       C     0.3125       0.645834     0            0
C2       C     0.34375      0.708334     0            0
C3       C     0.3125       0.729166     0            0
C4       C     0.34375      0.666666     0            0
C1       C     0.3125       0.645834     0.333333     0
C2       C     0.34375      0.708334     0.333333     0
C3       C     0.3125       0.729166     0.333333     0
C4       C     0.34375      0.666666     0.333333     0
C1       C     0.3125       0.645834     0.666667     0
C2       C     0.34375      0.708334     0.666667     0
C3       C     0.3125       0.729166     0.666667     0
C4       C     0.34375      0.666666     0.666667     0
C1       C     0.3125       0.770834     0            0
C2       C     0.34375      0.833334     0            0
C3       C     0.3125       0.854166     0            0
C4       C     0.34375      0.791666     0            0
C1       C     0.3125       0.770834     0.333333     0
C2       C     0.34375      0.833334     0.333333     0
C3       C     0.3125       0.854166     0.333333     0
C4       C     0.34375      0.791666     0.333333     0
C1       C     0.3125       0.770834     0.666667     0
C2       C     0.34375      0.833334     0.666667     0
C3       C     0.3125       0.854166     0.666667     0
C4       C     0.34375      0.791666     0.666667     0
C1       C     0.3125       0.895834     0            0
C2       C     0.34375      0.958334     0            0
C3       C     0.3125       0.979166     0            0
C4       C     0.34375      0.916666     0            0
C1       C     0.3125       0.895834     0.333333     0
C2       C     0.34375      0.958334     0.333333     0
C3       C     0.3125       0.979166     0.333333     0
C4       C     0.34375      0.916666     0.333333     0
C1       C     0.3125       0.895834     0.666667     0
C2       C     0.34375      0.958334     0.666667     0
C3       C     0.3125       0.979166     0.666667     0
C4       C     0.34375      0.916666     0.666667     0
C1       C     0.375        0.0208338    0            0
C2       C     0.40625      0.0833337    0            0
C3       C     0.375        0.104166     0            0
C4       C     0.40625      0.0416663    0            0
C1       C     0.375        0.0208338    0.333333     0
C2       C     0.40625      0.0833338    0.333333     0
C3       C     0.375        0.104166     0.333333     0
C4       C     0.40625      0.0416663    0.333333     0
C1       C     0.375        0.0208338    0.666667     0
C2       C     0.40625      0.0833337    0.666667     0
C3       C     0.375        0.104166     0.666667     0
C4       C     0.40625      0.0416663    0.666667     0
C1       C     0.375        0.145834     0            0
C2       C     0.40625      0.208334     0            0
C3       C     0.375        0.229166     0            0
C4       C     0.40625      0.166666     0            0
C1       C     0.375        0.145834     0.333333     0
C2       C     0.40625      0.208334     0.333333     0
C3       C     0.375        0.229166     0.333333     0
C4       C     0.40625      0.166666     0.333333     0
C1       C     0.375        0.145834     0.666667     0
C2       C     0.40625      0.208334     0.666667     0
C3       C     0.375        0.229166     0.666667     0
C4       C     0.40625      0.166666     0.666667     0
C1       C     0.375        0.270834     0            0
C2       C     0.40625      0.333334     0            0
C3       C     0.375        0.354166     0            0
C4       C     0.40625      0.291666     0            0
C1       C     0.375        0.270834     0.333333     0
C2       C     0.40625      0.333334     0.333333     0
C3       C     0.375        0.354166     0.333333     0
C4       C     0.40625      0.291666     0.333333     0
C1       C     0.375        0.270834     0.666667     0
C2       C     0.40625      0.333334     0.666667     0
C3       C     0.375        0.354166     0.666667     0
C4       C     0.40625      0.291666     0.666667     0
C1       C     0.375        0.395834     0            0
C2       C     0.40625      0.458334     0            0
C3       C     0.375        0.479166     0            0
C4       C     0.40625      0.416666     0            0
C1       C     0.375        0.395834     0.333333     0
C2       C     0.40625      0.458334     0.333333     0
C3       C     0.375        0.479166     0.333333     0
C4       C     0.40625      0.416666     0.333333     0
C1       C     0.375        0.395834     0.666667     0
C2       C     0.40625      0.458334     0.666667     0
C3       C     0.375        0.479166     0.666667     0
C4       C     0.40625      0.416666     0.666667     0
C1       C     0.375        0.520834     0            0
C2       C     0.40625      0.583334     0            0
C3       C     0.375        0.604166     0            0
C4       C     0.40625      0.541666     0            0
C1       C     0.375        0.520834     0.333333     0
C2       C     0.40625      0.583334     0.333333     0
C3       C     0.375        0.604166     0.333333     0
C4       C     0.40625      0.541666     0.333333     0
C1       C     0.375        0.520834     0.666667     0
C2       C     0.40625      0.583334     0.666667     0
C3       C     0.375        0.604166     0.666667     0
C4       C     0.40625      0.541666     0.666667     0
C1       C     0.375        0.645834     0            0
C2       C     0.40625      0.708334     0            0
C3       C     0.375        0.729166     0            0
C4       C     0.40625      0.666666     0            0
C1       C     0.375        0.645834     0.333333     0
C2       C     0.40625      0.708334     0.333333     0
C3       C     0.375        0.729166     0.333333     0
C4       C     0.40625      0.666666     0.333333     0
C1       C     0.375        0.645834     0.666667     0
C2       C     0.40625      0.708334     0.666667     0
C3       C     0.375        0.729166     0.666667     0
C4       C     0.40625      0.666666     0.666667     0
C1       C     0.375        0.770834     0            0
C2       C     0.40625      0.833334     0            0
C3       C     0.375        0.854166     0            0
C4       C     0.40625      0.791666     0            0
C1       C     0.375        0.770834     0.333333     0
C2       C     0.40625      0.833334     0.333333     0
C3       C     0.375        0.854166     0.333333     0
C4       C     0.40625      0.791666     0.333333     0
C1       C     0.375        0.770834     0.666667     0
C2       C     0.40625      0.833334     0.666667     0
C3       C     0.375        0.854166     0.666667     0
C4       C     0.40625      0.791666     0.666667     0
C1       C     0.375        0.895834     0            0
C2       C     0.40625      0.958334     0            0
C3       C     0.375        0.979166     0            0
C4       C     0.40625      0.916666     0            0
C1       C     0.375        0.895834     0.333333     0
C2       C     0.40625      0.958334     0.333333     0
C3       C     0.375        0.979166     0.333333     0
C4       C     0.40625      0.916666     0.333333     0
C1       C     0.375        0.895834     0.666667     0
C2       C     0.40625      0.958334     0.666667     0
C3       C     0.375        0.979166     0.666667     0
C4       C     0.40625      0.916666     0.666667     0
C1       C     0.4375       0.0208338    0            0
C2       C     0.46875      0.0833337    0            0
C3       C     0.4375       0.104166     0            0
C4       C     0.46875      0.0416663    0            0
C1       C     0.4375       0.0208338    0.333333     0
C2       C     0.46875      0.0833338    0.333333     0
C3       C     0.4375       0.104166     0.333333     0
C4       C     0.46875      0.0416663    0.333333     0
C1       C     0.4375       0.0208338    0.666667     0
C2       C     0.46875      0.0833337    0.666667     0
C3       C     0.4375       0.104166     0.666667     0
C4       C     0.46875      0.0416663    0.666667     0
C1       C     0.4375       0.145834     0            0
C2       C     0.46875      0.208334     0            0
C3       C     0.4375       0.229166     0            0
C4       C     0.46875      0.166666     0            0
C1       C     0.4375       0.145834     0.333333     0
C2       C     0.46875      0.208334     0.333333     0
C3       C     0.4375       0.229166     0.333333     0
C4       C     0.46875      0.166666     0.333333     0
C1       C     0.4375       0.145834     0.666667     0
C2       C     0.46875      0.208334     0.666667     0
C3       C     0.4375       0.229166     0.666667     0
C4       C     0.46875      0.166666     0.666667     0
C1       C     0.4375       0.270834     0            0
C2       C     0.46875      0.333334     0            0
C3       C     0.4375       0.354166     0            0
C4       C     0.46875      0.291666     0            0
C1       C     0.4375       0.270834     0.333333     0
C2       C     0.46875      0.333334     0.333333     0
C3       C     0.4375       0.354166     0.333333     0
C4       C     0.46875      0.291666     0.333333     0
C1       C     0.4375       0.270834     0.666667     0
C2       C     0.46875      0.333334     0.666667     0
C3       C     0.4375       0.354166     0.666667     0
C4       C     0.46875      0.291666     0.666667     0
C1       C     0.4375       0.395834     0            0
C2       C     0.46875      0.458334     0            0
C3       C     0.4375       0.479166     0            0
C4       C     0.46875      0.416666     0            0
C1       C     0.4375       0.395834     0.333333     0
C2       C     0.46875      0.458334     0.333333     0
C3       C     0.4375       0.479166     0.333333     0
C4       C     0.46875      0.416666     0.333333     0
C1       C     0.4375       0.395834     0.666667     0
C2       C     0.46875      0.458334     0.666667     0
C3       C     0.4375       0.479166     0.666667     0
C4       C     0.46875      0.416666     0.666667     0
C1       C     0.4375       0.520834     0            0
C2       C     0.46875      0.583334     0            0
C3       C     0.4375       0.604166     0            0
C4       C     0.46875      0.541666     0            0
C1       C     0.4375       0.520834     0.333333     0
C2       C     0.46875      0.583334     0.333333     0
C3       C     0.4375       0.604166     0.333333     0
C4       C     0.46875      0.541666     0.333333     0
C1       C     0.4375       0.520834     0.666667     0
C2       C     0.46875      0.583334     0.666667     0
C3       C     0.4375       0.604166     0.666667     0
C4       C     0.46875      0.541666     0.666667     0
C1       C     0.4375       0.645834     0            0
C2       C     0.46875      0.708334     0            0
C3       C     0.4375       0.729166     0            0
C4       C     0.46875      0.666666     0            0
C1       C     0.4375       0.645834     0.333333     0
C2       C     0.46875      0.708334     0.333333     0
C3       C     0.4375       0.729166     0.333333     0
C4       C     0.46875      0.666666     0.333333     0
C1       C     0.4375       0.645834     0.666667     0
C2       C     0.46875      0.708334     0.666667     0
C3       C     0.4375       0.729166     0.666667     0
C4       C     0.46875      0.666666     0.666667     0
C1       C     0.4375       0.770834     0            0
C2       C     0.46875      0.833334     0            0
C3       C     0.4375       0.854166     0            0
C4       C     0.46875      0.791666     0            0
C1       C     0.4375       0.770834     0.333333     0
C2       C     0.46875      0.833334     0.333333     0
C3       C     0.4375       0.854166     0.333333     0
C4       C     0.46875      0.791666     0.333333     0
C1       C     0.4375       0.770834     0.666667     0
C2       C     0.46875      0.833334     0.666667     0
C3       C     0.4375       0.854166     0.666667     0
C4       C     0.46875      0.791666     0.666667     0
C1       C     0.4375       0.895834     0            0
C2       C     0.46875      0.958334     0            0
C3       C     0.4375       0.979166     0            0
C4       C     0.46875      0.916666     0            0
C1       C     0.4375       0.895834     0.333333     0
C2       C     0.46875      0.958334     0.333333     0
C3       C     0.4375       0.979166     0.333333     0
C4       C     0.46875      0.916666     0.333333     0
C1       C     0.4375       0.895834     0.666667     0
C2       C     0.46875      0.958334     0.666667     0
C3       C     0.4375       0.979166     0.666667     0
C4       C     0.46875      0.916666     0.666667     0
C1       C     0.5          0.0208338    0            0
C2       C     0.53125      0.0833337    0            0
C3       C     0.5          0.104166     0            0
C4       C     0.53125      0.0416663    0            0
C1       C     0.5          0.0208338    0.333333     0
C2       C     0.53125      0.0833338    0.333333     0
C3       C     0.5          0.104166     0.333333     0
C4       C     0.53125      0.0416663    0.333333     0
C1       C     0.5          0.0208338    0.666667     0
C2       C     0.53125      0.0833337    0.666667     0
C3       C     0.5          0.104166     0.666667     0
C4       C     0.53125      0.0416663    0.666667     0
C1       C     0.5          0.145834     0            0
C2       C     0.53125      0.208334     0            0
C3       C     0.5          0.229166     0            0
C4       C     0.53125      0.166666     0            0
C1       C     0.5          0.145834     0.333333     0
C2       C     0.53125      0.208334     0.333333     0
C3       C     0.5          0.229166     0.333333     0
C4       C     0.53125      0.166666     0.333333     0
C1       C     0.5          0.145834     0.666667     0
C2       C     0.53125      0.208334     0.666667     0
C3       C     0.5          0.229166     0.666667     0
C4       C     0.53125      0.166666     0.666667     0
C1       C     0.5          0.270834     0            0
C2       C     0.53125      0.333334     0            0
C3       C     0.5          0.354166     0            0
C4       C     0.53125      0.291666     0            0
C1       C     0.5          0.270834     0.333333     0
C2       C     0.53125      0.333334     0.333333     0
C3       C     0.5          0.354166     0.333333     0
C4       C     0.53125      0.291666     0.333333     0
C1       C     0.5          0.270834     0.666667     0
C2       C     0.53125      0.333334     0.666667     0
C3       C     0.5          0.354166     0.666667     0
C4       C     0.53125      0.291666     0.666667     0
C1       C     0.5          0.395834     0            0
C2       C     0.53125      0.458334     0            0
C3       C     0.5          0.479166     0            0
C4       C     0.53125      0.416666     0            0
C1       C     0.5          0.395834     0.333333     0
C2       C     0.53125      0.458334     0.333333     0
C3       C     0.5          0.479166     0.333333     0
C4       C     0.53125      0.416666     0.333333     0
C1       C     0.5          0.395834     0.666667     0
C2       C     0.53125      0.458334     0.666667     0
C3       C     0.5          0.479166     0.666667     0
C4       C     0.53125      0.416666     0.666667     0
C1       C     0.5          0.520834     0            0
C2       C     0.53125      0.583334     0            0
C3       C     0.5          0.604166     0            0
C4       C     0.53125      0.541666     0            0
C1       C     0.5          0.520834     0.333333     0
C2       C     0.53125      0.583334     0.333333     0
C3       C     0.5          0.604166     0.333333     0
C4       C     0.53125      0.541666     0.333333     0
C1       C     0.5          0.520834     0.666667     0
C2       C     0.53125      0.583334     0.666667     0
C3       C     0.5          0.604166     0.666667     0
C4       C     0.53125      0.541666     0.666667     0
C1       C     0.5          0.645834     0            0
C2       C     0.53125      0.708334     0            0
C3       C     0.5          0.729166     0            0
C4       C     0.53125      0.666666     0            0
C1       C     0.5          0.645834     0.333333     0
C2       C     0.53125      0.708334     0.333333     0
C3       C     0.5          0.729166     0.333333     0
C4       C     0.53125      0.666666     0.333333     0
C1       C     0.5          0.645834     0.666667     0
C2       C     0.53125      0.708334     0.666667     0
C3       C     0.5          0.729166     0.666667     0
C4       C     0.53125      0.666666     0.666667     0
C1       C     0.5          0.770834     0            0
C2       C     0.53125      0.833334     0            0
C3       C     0.5          0.854166     0            0
C4       C     0.53125      0.791666     0            0
C1       C     0.5          0.770834     0.333333     0
C2       C     0.53125      0.833334     0.333333     0
C3       C     0.5          0.854166     0.333333     0
C4       C     0.53125      0.791666     0.333333     0
C1       C     0.5          0.770834     0.666667     0
C2       C     0.53125      0.833334     0.666667     0
C3       C     0.5          0.854166     0.666667     0
C4       C     0.53125      0.791666     0.666667     0
C1       C     0.5          0.895834     0            0
C2       C     0.53125      0.958334     0            0
C3       C     0.5          0.979166     0            0
C4       C     0.53125      0.916666     0            0
C1       C     0.5          0.895834     0.333333     0
C2       C     0.53125      0.958334     0.333333     0
C3       C     0.5          0.979166     0.333333     0
C4       C     0.53125      0.916666     0.333333     0
C1       C     0.5          0.895834     0.666667     0
C2       C     0.53125      0.958334     0.666667     0
C3       C     0.5          0.979166     0.666667     0
C4       C     0.53125      0.916666     0.666667     0
C1       C     0.5625       0.0208338    0            0
C2       C     0.59375      0.0833337    0            0
C3       C     0.5625       0.104166     0            0
C4       C     0.59375      0.0416663    0            0
C1       C     0.5625       0.0208338    0.333333     0
C2       C     0.59375      0.0833338    0.333333     0
C3       C     0.5625       0.104166     0.333333     0
C4       C     0.59375      0.0416663    0.333333     0
C1       C     0.5625       0.0208338    0.666667     0
C2       C     0.59375      0.0833337    0.666667     0
C3       C     0.5625       0.104166     0.666667     0
C4       C     0.59375      0.0416663    0.666667     0
C1       C     0.5625       0.145834     0            0
C2       C     0.59375      0.208334     0            0
C3       C     0.5625       0.229166     0            0
C4       C     0.59375      0.166666     0            0
C1       C     0.5625       0.145834     0.333333     0
C2       C     0.59375      0.208334     0.333333     0
C3       C     0.5625       0.229166     0.333333     0
C4       C     0.59375      0.166666     0.333333     0
C1       C     0.5625       0.145834     0.666667     0
C2       C     0.59375      0.208334     0.666667     0
C3       C     0.5625       0.229166     0.666667     0
C4       C     0.59375      0.166666     0.666667     0
C1       C     0.5625       0.270834     0            0
C2       C     0.59375      0.333334     0            0
C3       C     0.5625       0.354166     0            0
C4       C     0.59375      0.291666     0            0
C1       C     0.5625       0.270834     0.333333     0
C2       C     0.59375      0.333334     0.333333     0
C3       C     0.5625       0.354166     0.333333     0
C4       C     0.59375      0.291666     0.333333     0
C1       C     0.5625       0.270834     0.666667     0
C2       C     0.59375      0.333334     0.666667     0
C3       C     0.5625       0.354166     0.666667     0
C4       C     0.59375      0.291666     0.666667     0
C1       C     0.5625       0.395834     0            0
C2       C     0.59375      0.458334     0            0
C3       C     0.5625       0.479166     0            0
C4       C     0.59375      0.416666     0            0
C1       C     0.5625       0.395834     0.333333     0
C2       C     0.59375      0.458334     0.333333     0
C3       C     0.5625       0.479166     0.333333     0
C4       C     0.59375      0.416666     0.333333     0
C1       C     0.5625       0.395834     0.666667     0
C2       C     0.59375      0.458334     0.666667     0
C3       C     0.5625       0.479166     0.666667     0
C4       C     0.59375      0.416666     0.666667     0
C1       C     0.5625       0.520834     0            0
C2       C     0.59375      0.583334     0            0
C3       C     0.5625       0.604166     0            0
C4       C     0.59375      0.541666     0            0
C1       C     0.5625       0.520834     0.333333     0
C2       C     0.59375      0.583334     0.333333     0
C3       C     0.5625       0.604166     0.333333     0
C4       C     0.59375      0.541666     0.333333     0
C1       C     0.5625       0.520834     0.666667     0
C2       C     0.59375      0.583334     0.666667     0
C3       C     0.5625       0.604166     0.666667     0
C4       C     0.59375      0.541666     0.666667     0
C1       C     0.5625       0.645834     0            0
C2       C     0.59375      0.708334     0            0
C3       C     0.5625       0.729166     0            0
C4       C     0.59375      0.666666     0            0
C1       C     0.5625       0.645834     0.333333     0
C2       C     0.59375      0.708334     0.333333     0
C3       C     0.5625       0.729166     0.333333     0
C4       C     0.59375      0.666666     0.333333     0
C1       C     0.5625       0.645834     0.666667     0
C2       C     0.59375      0.708334     0.666667     0
C3       C     0.5625       0.729166     0.666667     0
C4       C     0.59375      0.666666     0.666667     0
C1       C     0.5625       0.770834     0            0
C2       C     0.59375      0.833334     0            0
C3       C     0.5625       0.854166     0            0
C4       C     0.59375      0.791666     0            0
C1       C     0.5625       0.770834     0.333333     0
C2       C     0.59375      0.833334     0.333333     0
C3       C     0.5625       0.854166     0.333333     0
C4       C     0.59375      0.791666     0.333333     0
C1       C     0.5625       0.770834     0.666667     0
C2       C     0.59375      0.833334     0.666667     0
C3       C     0.5625       0.854166     0.666667     0
C4       C     0.59375      0.791666     0.666667     0
C1       C     0.5625       0.895834     0            0
C2       C     0.59375      0.958334     0            0
C3       C     0.5625       0.979166     0            0
C4       C     0.59375      0.916666     0            0
C1       C     0.5625       0.895834     0.333333     0
C2       C     0.59375      0.958334     0.333333     0
C3       C     0.5625       0.979166     0.333333     0
C4       C     0.59375      0.916666     0.333333     0
C1       C     0.5625       0.895834     0.666667     0
C2       C     0.59375      0.958334     0.666667     0
C3       C     0.5625       0.979166     0.666667     0
C4       C     0.59375      0.916666     0.666667     0
C1       C     0.625        0.0208338    0            0
C2       C     0.65625      0.0833337    0            0
C3       C     0.625        0.104166     0            0
C4       C     0.65625      0.0416663    0            0
C1       C     0.625        0.0208338    0.333333     0
C2       C     0.65625      0.0833338    0.333333     0
C3       C     0.625        0.104166     0.333333     0
C4       C     0.65625      0.0416663    0.333333     0
C1       C     0.625        0.0208338    0.666667     0
C2       C     0.65625      0.0833337    0.666667     0
C3       C     0.625        0.104166     0.666667     0
C4       C     0.65625      0.0416663    0.666667     0
C1       C     0.625        0.145834     0            0
C2       C     0.65625      0.208334     0            0
C3       C     0.625        0.229166     0            0
C4       C     0.65625      0.166666     0            0
C1       C     0.625        0.145834     0.333333     0
C2       C     0.65625      0.208334     0.333333     0
C3       C     0.625        0.229166     0.333333     0
C4       C     0.65625      0.166666     0.333333     0
C1       C     0.625        0.145834     0.666667     0
C2       C     0.65625      0.208334     0.666667     0
C3       C     0.625        0.229166     0.666667     0
C4       C     0.65625      0.166666     0.666667     0
C1       C     0.625        0.270834     0            0
C2       C     0.65625      0.333334     0            0
C3       C     0.625        0.354166     0            0
C4       C     0.65625      0.291666     0            0
C1       C     0.625        0.270834     0.333333     0
C2       C     0.65625      0.333334     0.333333     0
C3       C     0.625        0.354166     0.333333     0
C4       C     0.65625      0.291666     0.333333     0
C1       C     0.625        0.270834     0.666667     0
C2       C     0.65625      0.333334     0.666667     0
C3       C     0.625        0.354166     0.666667     0
C4       C     0.65625      0.291666     0.666667     0
C1       C     0.625        0.395834     0            0
C2       C     0.65625      0.458334     0            0
C3       C     0.625        0.479166     0            0
C4       C     0.65625      0.416666     0            0
C1       C     0.625        0.395834     0.333333     0
C2       C     0.65625      0.458334     0.333333     0
C3       C     0.625        0.479166     0.333333     0
C4       C     0.65625      0.416666     0.333333     0
C1       C     0.625        0.395834     0.666667     0
C2       C     0.65625      0.458334     0.666667     0
C3       C     0.625        0.479166     0.666667     0
C4       C     0.65625      0.416666     0.666667     0
C1       C     0.625        0.520834     0            0
C2       C     0.65625      0.583334     0            0
C3       C     0.625        0.604166     0            0
C4       C     0.65625      0.541666     0            0
C1       C     0.625        0.520834     0.333333     0
C2       C     0.65625      0.583334     0.333333     0
C3       C     0.625        0.604166     0.333333     0
C4       C     0.65625      0.541666     0.333333     0
C1       C     0.625        0.520834     0.666667     0
C2       C     0.65625      0.583334     0.666667     0
C3       C     0.625        0.604166     0.666667     0
C4       C     0.65625      0.541666     0.666667     0
C1       C     0.625        0.645834     0            0
C2       C     0.65625      0.708334     0            0
C3       C     0.625        0.729166     0            0
C4       C     0.65625      0.666666     0            0
C1       C     0.625        0.645834     0.333333     0
C2       C     0.65625      0.708334     0.333333     0
C3       C     0.625        0.729166     0.333333     0
C4       C     0.65625      0.666666     0.333333     0
C1       C     0.625        0.645834     0.666667     0
C2       C     0.65625      0.708334     0.666667     0
C3       C     0.625        0.729166     0.666667     0
C4       C     0.65625      0.666666     0.666667     0
C1       C     0.625        0.770834     0            0
C2       C     0.65625      0.833334     0            0
C3       C     0.625        0.854166     0            0
C4       C     0.65625      0.791666     0            0
C1       C     0.625        0.770834     0.333333     0
C2       C     0.65625      0.833334     0.333333     0
C3       C     0.625        0.854166     0.333333     0
C4       C     0.65625      0.791666     0.333333     0
C1       C     0.625        0.770834     0.666667     0
C2       C     0.65625      0.833334     0.666667     0
C3       C     0.625        0.854166     0.666667     0
C4       C     0.65625      0.791666     0.666667     0
C1       C     0.625        0.895834     0            0
C2       C     0.65625      0.958334     0            0
C3       C     0.625        0.979166     0            0
C4       C     0.65625      0.916666     0            0
C1       C     0.625        0.895834     0.333333     0
C2       C     0.65625      0.958334     0.333333     0
C3       C     0.625        0.979166     0.333333     0
C4       C     0.65625      0.916666     0.333333     0
C1       C     0.625        0.895834     0.666667     0
C2       C     0.65625      0.958334     0.666667     0
C3       C     0.625        0.979166     0.666667     0
C4       C     0.65625      0.916666     0.666667     0
C1       C     0.6875       0.0208338    0            0
C2       C     0.71875      0.0833337    0            0
C3       C     0.6875       0.104166     0            0
C4       C     0.71875      0.0416663    0            0
C1       C     0.6875       0.0208338    0.333333     0
C2       C     0.71875      0.0833338    0.333333     0
C3       C     0.6875       0.104166     0.333333     0
C4       C     0.71875      0.0416663    0.333333     0
C1       C     0.6875       0.0208338    0.666667     0
C2       C     0.71875      0.0833337    0.666667     0
C3       C     0.6875       0.104166     0.666667     0
C4       C     0.71875      0.0416663    0.666667     0
C1       C     0.6875       0.145834     0            0
C2       C     0.71875      0.208334     0            0
C3       C     0.6875       0.229166     0            0
C4       C     0.71875      0.166666     0            0
C1       C     0.6875       0.145834     0.333333     0
C2       C     0.71875      0.208334     0.333333     0
C3       C     0.6875       0.229166     0.333333     0
C4       C     0.71875      0.166666     0.333333     0
C1       C     0.6875       0.145834     0.666667     0
C2       C     0.71875      0.208334     0.666667     0
C3       C     0.6875       0.229166     0.666667     0
C4       C     0.71875      0.166666     0.666667     0
C1       C     0.6875       0.270834     0            0
C2       C     0.71875      0.333334     0            0
C3       C     0.6875       0.354166     0            0
C4       C     0.71875      0.291666     0            0
C1       C     0.6875       0.270834     0.333333     0
C2       C     0.71875      0.333334     0.333333     0
C3       C     0.6875       0.354166     0.333333     0
C4       C     0.71875      0.291666     0.333333     0
C1       C     0.6875       0.270834     0.666667     0
C2       C     0.71875      0.333334     0.666667     0
C3       C     0.6875       0.354166     0.666667     0
C4       C     0.71875      0.291666     0.666667     0
C1       C     0.6875       0.395834     0            0
C2       C     0.71875      0.458334     0            0
C3       C     0.6875       0.479166     0            0
C4       C     0.71875      0.416666     0            0
C1       C     0.6875       0.395834     0.333333     0
C2       C     0.71875      0.458334     0.333333     0
C3       C     0.6875       0.479166     0.333333     0
C4       C     0.71875      0.416666     0.333333     0
C1       C     0.6875       0.395834     0.666667     0
C2       C     0.71875      0.458334     0.666667     0
C3       C     0.6875       0.479166     0.666667     0
C4       C     0.71875      0.416666     0.666667     0
C1       C     0.6875       0.520834     0            0
C2       C     0.71875      0.583334     0            0
C3       C     0.6875       0.604166     0            0
C4       C     0.71875      0.541666     0            0
C1       C     0.6875       0.520834     0.333333     0
C2       C     0.71875      0.583334     0.333333     0
C3       C     0.6875       0.604166     0.333333     0
C4       C     0.71875      0.541666     0.333333     0
C1       C     0.6875       0.520834     0.666667     0
C2       C     0.71875      0.583334     0.666667     0
C3       C     0.6875       0.604166     0.666667     0
C4       C     0.71875      0.541666     0.666667     0
C1       C     0.6875       0.645834     0            0
C2       C     0.71875      0.708334     0            0
C3       C     0.6875       0.729166     0            0
C4       C     0.71875      0.666666     0            0
C1       C     0.6875       0.645834     0.333333     0
C2       C     0.71875      0.708334     0.333333     0
C3       C     0.6875       0.729166     0.333333     0
C4       C     0.71875      0.666666     0.333333     0
C1       C     0.6875       0.645834     0.666667     0
C2       C     0.71875      0.708334     0.666667     0
C3       C     0.6875       0.729166     0.666667     0
C4       C     0.71875      0.666666     0.666667     0
C1       C     0.6875       0.770834     0            0
C2       C     0.71875      0.833334     0            0
C3       C     0.6875       0.854166     0            0
C4       C     0.71875      0.791666     0            0
C1       C     0.6875       0.770834     0.333333     0
C2       C     0.71875      0.833334     0.333333     0
C3       C     0.6875       0.854166     0.333333     0
C4       C     0.71875      0.791666     0.333333     0
C1       C     0.6875       0.770834     0.666667     0
C2       C     0.71875      0.833334     0.666667     0
C3       C     0.6875       0.854166     0.666667     0
C4       C     0.71875      0.791666     0.666667     0
C1       C     0.6875       0.895834     0            0
C2       C     0.71875      0.958334     0            0
C3       C     0.6875       0.979166     0            0
C4       C     0.71875      0.916666     0            0
C1       C     0.6875       0.895834     0.333333     0
C2       C     0.71875      0.958334     0.333333     0
C3       C     0.6875       0.979166     0.333333     0
C4       C     0.71875      0.916666     0.333333     0
C1       C     0.6875       0.895834     0.666667     0
C2       C     0.71875      0.958334     0.666667     0
C3       C     0.6875       0.979166     0.666667     0
C4       C     0.71875      0.916666     0.666667     0
C1       C     0.75         0.0208338    0            0
C2       C     0.78125      0.0833337    0            0
C3       C     0.75         0.104166     0            0
C4       C     0.78125      0.0416663    0            0
C1       C     0.75         0.0208338    0.333333     0
C2       C     0.78125      0.0833338    0.333333     0
C3       C     0.75         0.104166     0.333333     0
C4       C     0.78125      0.0416663    0.333333     0
C1       C     0.75         0.0208338    0.666667     0
C2       C     0.78125      0.0833337    0.666667     0
C3       C     0.75         0.104166     0.666667     0
C4       C     0.78125      0.0416663    0.666667     0
C1       C     0.75         0.145834     0            0
C2       C     0.78125      0.208334     0            0
C3       C     0.75         0.229166     0            0
C4       C     0.78125      0.166666     0            0
C1       C     0.75         0.145834     0.333333     0
C2       C     0.78125      0.208334     0.333333     0
C3       C     0.75         0.229166     0.333333     0
C4       C     0.78125      0.166666     0.333333     0
C1       C     0.75         0.145834     0.666667     0
C2       C     0.78125      0.208334     0.666667     0
C3       C     0.75         0.229166     0.666667     0
C4       C     0.78125      0.166666     0.666667     0
C1       C     0.75         0.270834     0            0
C2       C     0.78125      0.333334     0            0
C3       C     0.75         0.354166     0            0
C4       C     0.78125      0.291666     0            0
C1       C     0.75         0.270834     0.333333     0
C2       C     0.78125      0.333334     0.333333     0
C3       C     0.75         0.354166     0.333333     0
C4       C     0.78125      0.291666     0.333333     0
C1       C     0.75         0.270834     0.666667     0
C2       C     0.78125      0.333334     0.666667     0
C3       C     0.75         0.354166     0.666667     0
C4       C     0.78125      0.291666     0.666667     0
C1       C     0.75         0.395834     0            0
C2       C     0.78125      0.458334     0            0
C3       C     0.75         0.479166     0            0
C4       C     0.78125      0.416666     0            0
C1       C     0.75         0.395834     0.333333     0
C2       C     0.78125      0.458334     0.333333     0
C3       C     0.75         0.479166     0.333333     0
C4       C     0.78125      0.416666     0.333333     0
C1       C     0.75         0.395834     0.666667     0
C2       C     0.78125      0.458334     0.666667     0
C3       C     0.75         0.479166     0.666667     0
C4       C     0.78125      0.416666     0.666667     0
C1       C     0.75         0.520834     0            0
C2       C     0.78125      0.583334     0            0
C3       C     0.75         0.604166     0            0
C4       C     0.78125      0.541666     0            0
C1       C     0.75         0.520834     0.333333     0
C2       C     0.78125      0.583334     0.333333     0
C3       C     0.75         0.604166     0.333333     0
C4       C     0.78125      0.541666     0.333333     0
C1       C     0.75         0.520834     0.666667     0
C2       C     0.78125      0.583334     0.666667     0
C3       C     0.75         0.604166     0.666667     0
C4       C     0.78125      0.541666     0.666667     0
C1       C     0.75         0.645834     0            0
C2       C     0.78125      0.708334     0            0
C3       C     0.75         0.729166     0            0
C4       C     0.78125      0.666666     0            0
C1       C     0.75         0.645834     0.333333     0
C2       C     0.78125      0.708334     0.333333     0
C3       C     0.75         0.729166     0.333333     0
C4       C     0.78125      0.666666     0.333333     0
C1       C     0.75         0.645834     0.666667     0
C2       C     0.78125      0.708334     0.666667     0
C3       C     0.75         0.729166     0.666667     0
C4       C     0.78125      0.666666     0.666667     0
C1       C     0.75         0.770834     0            0
C2       C     0.78125      0.833334     0            0
C3       C     0.75         0.854166     0            0
C4       C     0.78125      0.791666     0            0
C1       C     0.75         0.770834     0.333333     0
C2       C     0.78125      0.833334     0.333333     0
C3       C     0.75         0.854166     0.333333     0
C4       C     0.78125      0.791666     0.333333     0
C1       C     0.75         0.770834     0.666667     0
C2       C     0.78125      0.833334     0.666667     0
C3       C     0.75         0.854166     0.666667     0
C4       C     0.78125      0.791666     0.666667     0
C1       C     0.75         0.895834     0            0
C2       C     0.78125      0.958334     0            0
C3       C     0.75         0.979166     0            0
C4       C     0.78125      0.916666     0            0
C1       C     0.75         0.895834     0.333333     0
C2       C     0.78125      0.958334     0.333333     0
C3       C     0.75         0.979166     0.333333     0
C4       C     0.78125      0.916666     0.333333     0
C1       C     0.75         0.895834     0.666667     0
C2       C     0.78125      0.958334     0.666667     0
C3       C     0.75         0.979166     0.666667     0
C4       C     0.78125      0.916666     0.666667     0
C1       C     0.8125       0.0208338    0            0
C2       C     0.84375      0.0833337    0            0
C3       C     0.8125       0.104166     0            0
C4       C     0.84375      0.0416663    0            0
C1       C     0.8125       0.0208338    0.333333     0
C2       C     0.84375      0.0833338    0.333333     0
C3       C     0.8125       0.104166     0.333333     0
C4       C     0.84375      0.0416663    0.333333     0
C1       C     0.8125       0.0208338    0.666667     0
C2       C     0.84375      0.0833337    0.666667     0
C3       C     0.8125       0.104166     0.666667     0
C4       C     0.84375      0.0416663    0.666667     0
C1       C     0.8125       0.145834     0            0
C2       C     0.84375      0.208334     0            0
C3       C     0.8125       0.229166     0            0
C4       C     0.84375      0.166666     0            0
C1       C     0.8125       0.145834     0.333333     0
C2       C     0.84375      0.208334     0.333333     0
C3       C     0.8125       0.229166     0.333333     0
C4       C     0.84375      0.166666     0.333333     0
C1       C     0.8125       0.145834     0.666667     0
C2       C     0.84375      0.208334     0.666667     0
C3       C     0.8125       0.229166     0.666667     0
C4       C     0.84375      0.166666     0.666667     0
C1       C     0.8125       0.270834     0            0
C2       C     0.84375      0.333334     0            0
C3       C     0.8125       0.354166     0            0
C4       C     0.84375      0.291666     0            0
C1       C     0.8125       0.270834     0.333333     0
C2       C     0.84375      0.333334     0.333333     0
C3       C     0.8125       0.354166     0.333333     0
C4       C     0.84375      0.291666     0.333333     0
C1       C     0.8125       0.270834     0.666667     0
C2       C     0.84375      0.333334     0.666667     0
C3       C     0.8125       0.354166     0.666667     0
C4       C     0.84375      0.291666     0.666667     0
C1       C     0.8125       0.395834     0            0
C2       C     0.84375      0.458334     0            0
C3       C     0.8125       0.479166     0            0
C4       C     0.84375      0.416666     0            0
C1       C     0.8125       0.395834     0.333333     0
C2       C     0.84375      0.458334     0.333333     0
C3       C     0.8125       0.479166     0.333333     0
C4       C     0.84375      0.416666     0.333333     0
C1       C     0.8125       0.395834     0.666667     0
C2       C     0.84375      0.458334     0.666667     0
C3       C     0.8125       0.479166     0.666667     0
C4       C     0.84375      0.416666     0.666667     0
C1       C     0.8125       0.520834     0            0
C2       C     0.84375      0.583334     0            0
C3       C     0.8125       0.604166     0            0
C4       C     0.84375      0.541666     0            0
C1       C     0.8125       0.520834     0.333333     0
C2       C     0.84375      0.583334     0.333333     0
C3       C     0.8125       0.604166     0.333333     0
C4       C     0.84375      0.541666     0.333333     0
C1       C     0.8125       0.520834     0.666667     0
C2       C     0.84375      0.583334     0.666667     0
C3       C     0.8125       0.604166     0.666667     0
C4       C     0.84375      0.541666     0.666667     0
C1       C     0.8125       0.645834     0            0
C2       C     0.84375      0.708334     0            0
C3       C     0.8125       0.729166     0            0
C4       C     0.84375      0.666666     0            0
C1       C     0.8125       0.645834     0.333333     0
C2       C     0.84375      0.708334     0.333333     0
C3       C     0.8125       0.729166     0.333333     0
C4       C     0.84375      0.666666     0.333333     0
C1       C     0.8125       0.645834     0.666667     0
C2       C     0.84375      0.708334     0.666667     0
C3       C     0.8125       0.729166     0.666667     0
C4       C     0.84375      0.666666     0.666667     0
C1       C     0.8125       0.770834     0            0
C2       C     0.84375      0.833334     0            0
C3       C     0.8125       0.854166     0            0
C4       C     0.84375      0.791666     0            0
C1       C     0.8125       0.770834     0.333333     0
C2       C     0.84375      0.833334     0.333333     0
C3       C     0.8125       0.854166     0.333333     0
C4       C     0.84375      0.791666     0.333333     0
C1       C     0.8125       0.770834     0.666667     0
C2       C     0.84375      0.833334     0.666667     0
C3       C     0.8125       0.854166     0.666667     0
C4       C     0.84375      0.791666     0.666667     0
C1       C     0.8125       0.895834     0            0
C2       C     0.84375      0.958334     0            0
C3       C     0.8125       0.979166     0            0
C4       C     0.84375      0.916666     0            0
C1       C     0.8125       0.895834     0.333333     0
C2       C     0.84375      0.958334     0.333333     0
C3       C     0.8125       0.979166     0.333333     0
C4       C     0.84375      0.916666     0.333333     0
C1       C     0.8125       0.895834     0.666667     0
C2       C     0.84375      0.958334     0.666667     0
C3       C     0.8125       0.979166     0.666667     0
C4       C     0.84375      0.916666     0.666667     0
C1       C     0.875        0.0208338    0            0
C2       C     0.90625      0.0833337    0            0
C3       C     0.875        0.104166     0            0
C4       C     0.90625      0.0416663    0            0
C1       C     0.875        0.0208338    0.333333     0
C2       C     0.90625      0.0833338    0.333333     0
C3       C     0.875        0.104166     0.333333     0
C4       C     0.90625      0.0416663    0.333333     0
C1       C     0.875        0.0208338    0.666667     0
C2       C     0.90625      0.0833337    0.666667     0
C3       C     0.875        0.104166     0.666667     0
C4       C     0.90625      0.0416663    0.666667     0
C1       C     0.875        0.145834     0            0
C2       C     0.90625      0.208334     0            0
C3       C     0.875        0.229166     0            0
C4       C     0.90625      0.166666     0            0
C1       C     0.875        0.145834     0.333333     0
C2       C     0.90625      0.208334     0.333333     0
C3       C     0.875        0.229166     0.333333     0
C4       C     0.90625      0.166666     0.333333     0
C1       C     0.875        0.145834     0.666667     0
C2       C     0.90625      0.208334     0.666667     0
C3       C     0.875        0.229166     0.666667     0
C4       C     0.90625      0.166666     0.666667     0
C1       C     0.875        0.270834     0            0
C2       C     0.90625      0.333334     0            0
C3       C     0.875        0.354166     0            0
C4       C     0.90625      0.291666     0            0
C1       C     0.875        0.270834     0.333333     0
C2       C     0.90625      0.333334     0.333333     0
C3       C     0.875        0.354166     0.333333     0
C4       C     0.90625      0.291666     0.333333     0
C1       C     0.875        0.270834     0.666667     0
C2       C     0.90625      0.333334     0.666667     0
C3       C     0.875        0.354166     0.666667     0
C4       C     0.90625      0.291666     0.666667     0
C1       C     0.875        0.395834     0            0
C2       C     0.90625      0.458334     0            0
C3       C     0.875        0.479166     0            0
C4       C     0.90625      0.416666     0            0
C1       C     0.875        0.395834     0.333333     0
C2       C     0.90625      0.458334     0.333333     0
C3       C     0.875        0.479166     0.333333     0
C4       C     0.90625      0.416666     0.333333     0
C1       C     0.875        0.395834     0.666667     0
C2       C     0.90625      0.458334     0.666667     0
C3       C     0.875        0.479166     0.666667     0
C4       C     0.90625      0.416666     0.666667     0
C1       C     0.875        0.520834     0            0
C2       C     0.90625      0.583334     0            0
C3       C     0.875        0.604166     0            0
C4       C     0.90625      0.541666     0            0
C1       C     0.875        0.520834     0.333333     0
C2       C     0.90625      0.583334     0.333333     0
C3       C     0.875        0.604166     0.333333     0
C4       C     0.90625      0.541666     0.333333     0
C1       C     0.875        0.520834     0.666667     0
C2       C     0.90625      0.583334     0.666667     0
C3       C     0.875        0.604166     0.666667     0
C4       C     0.90625      0.541666     0.666667     0
C1       C     0.875        0.645834     0            0
C2       C     0.90625      0.708334     0            0
C3       C     0.875        0.729166     0            0
C4       C     0.90625      0.666666     0            0
C1       C     0.875        0.645834     0.333333     0
C2       C     0.90625      0.708334     0.333333     0
C3       C     0.875        0.729166     0.333333     0
C4       C     0.90625      0.666666     0.333333     0
C1       C     0.875        0.645834     0.666667     0
C2       C     0.90625      0.708334     0.666667     0
C3       C     0.875        0.729166     0.666667     0
C4       C     0.90625      0.666666     0.666667     0
C1       C     0.875        0.770834     0            0
C2       C     0.90625      0.833334     0            0
C3       C     0.875        0.854166     0            0
C4       C     0.90625      0.791666     0            0
C1       C     0.875        0.770834     0.333333     0
C2       C     0.90625      0.833334     0.333333     0
C3       C     0.875        0.854166     0.333333     0
C4       C     0.90625      0.791666     0.333333     0
C1       C     0.875        0.770834     0.666667     0
C2       C     0.90625      0.833334     0.666667     0
C3       C     0.875        0.854166     0.666667     0
C4       C     0.90625      0.791666     0.666667     0
C1       C     0.875        0.895834     0            0
C2       C     0.90625      0.958334     0            0
C3       C     0.875        0.979166     0            0
C4       C     0.90625      0.916666     0            0
C1       C     0.875        0.895834     0.333333     0
C2       C     0.90625      0.958334     0.333333     0
C3       C     0.875        0.979166     0.333333     0
C4       C     0.90625      0.916666     0.333333     0
C1       C     0.875        0.895834     0.666667     0
C2       C     0.90625      0.958334     0.666667     0
C3       C     0.875        0.979166     0.666667     0
C4       C     0.90625      0.916666     0.666667     0
C1       C     0.9375       0.0208338    0            0
C2       C     0.96875      0.0833337    0            0
C3       C     0.9375       0.104166     0            0
C4       C     0.96875      0.0416663    0            0
C1       C     0.9375       0.0208338    0.333333     0
C2       C     0.96875      0.0833338    0.333333     0
C3       C     0.9375       0.104166     0.333333     0
C4       C     0.96875      0.0416663    0.333333     0
C1       C     0.9375       0.0208338    0.666667     0
C2       C     0.96875      0.0833337    0.666667     0
C3       C     0.9375       0.104166     0.666667     0
C4       C     0.96875      0.0416663    0.666667     0
C1       C     0.9375       0.145834     0            0
C2       C     0.96875      0.208334     0            0
C3       C     0.9375       0.229166     0            0
C4       C     0.96875      0.166666     0            0
C1       C     0.9375       0.145834     0.333333     0
C2       C     0.96875      0.208334     0.333333     0
C3       C     0.9375       0.229166     0.333333     0
C4       C     0.96875      0.166666     0.333333     0
C1       C     0.9375       0.145834     0.666667     0
C2       C     0.96875      0.208334     0.666667     0
C3       C     0.9375       0.229166     0.666667     0
C4       C     0.96875      0.166666     0.666667     0
C1       C     0.9375       0.270834     0            0
C2       C     0.96875      0.333334     0            0
C3       C     0.9375       0.354166     0            0
C4       C     0.96875      0.291666     0            0
C1       C     0.9375       0.270834     0.333333     0
C2       C     0.96875      0.333334     0.333333     0
C3       C     0.9375       0.354166     0.333333     0
C4       C     0.96875      0.291666     0.333333     0
C1       C     0.9375       0.270834     0.666667     0
C2       C     0.96875      0.333334     0.666667     0
C3       C     0.9375       0.354166     0.666667     0
C4       C     0.96875      0.291666     0.666667     0
C1       C     0.9375       0.395834     0            0
C2       C     0.96875      0.458334     0            0
C3       C     0.9375       0.479166     0            0
C4       C     0.96875      0.416666     0            0
C1       C     0.9375       0.395834     0.333333     0
C2       C     0.96875      0.458334     0.333333     0
C3       C     0.9375       0.479166     0.333333     0
C4       C     0.96875      0.416666     0.333333     0
C1       C     0.9375       0.395834     0.666667     0
C2       C     0.96875      0.458334     0.666667     0
C3       C     0.9375       0.479166     0.666667     0
C4       C     0.96875      0.416666     0.666667     0
C1       C     0.9375       0.520834     0            0
C2       C     0.96875      0.583334     0            0
C3       C     0.9375       0.604166     0            0
C4       C     0.96875      0.541666     0            0
C1       C     0.9375       0.520834     0.333333     0
C2       C     0.96875      0.583334     0.333333     0
C3       C     0.9375       0.604166     0.333333     0
C4       C     0.96875      0.541666     0.333333     0
C1       C     0.9375       0.520834     0.666667     0
C2       C     0.96875      0.583334     0.666667     0
C3       C     0.9375       0.604166     0.666667     0
C4       C     0.96875      0.541666     0.666667     0
C1       C     0.9375       0.645834     0            0
C2       C     0.96875      0.708334     0            0
C3       C     0.9375       0.729166     0            0
C4       C     0.96875      0.666666     0            0
C1       C     0.9375       0.645834     0.333333     0
C2       C     0.96875      0.708334     0.333333     0
C3       C     0.9375       0.729166     0.333333     0
C4       C     0.96875      0.666666     0.333333     0
C1       C     0.9375       0.645834     0.666667     0
C2       C     0.96875      0.708334     0.666667     0
C3       C     0.9375       0.729166     0.666667     0
C4       C     0.96875      0.666666     0.666667     0
C1       C     0.9375       0.770834     0            0
C2       C     0.96875      0.833334     0            0
C3       C     0.9375       0.854166     0            0
C4       C     0.96875      0.791666     0            0
C1       C     0.9375       0.770834     0.333333     0
C2       C     0.96875      0.833334     0.333333     0
C3       C     0.9375       0.854166     0.333333     0
C4       C     0.96875      0.791666     0.333333     0
C1       C     0.9375       0.770834     0.666667     0
C2       C     0.96875      0.833334     0.666667     0
C3       C     0.9375       0.854166     0.666667     0
C4       C     0.96875      0.791666     0.666667     0
C1       C     0.9375       0.895834     0            0
C2       C     0.96875      0.958334     0            0
C3       C     0.9375       0.979166     0            0
C4       C     0.96875      0.916666     0            0
C1       C     0.9375       0.895834     0.333333     0
C2       C     0.96875      0.958334     0.333333     0
C3       C     0.9375       0.979166     0.333333     0
C4       C     0.96875      0.916666     0.333333     0
C1       C     0.9375       0.895834     0.666667     0
C2       C     0.96875      0.958334     0.666667     0
C3       C     0.9375       0.979166     0.666667     0
C4       C     0.96875      0.916666     0.666667     0
C1       C     0            0            0.0208338    0
C2       C     0.03125      0            0.0833337    0
C3       C     0            0            0.104166     0
C4       C     0.03125      0            0.0416663    0
C1       C     0            0            0.145834     0
C2       C     0.03125      0            0.208334     0
C3       C     0            0            0.229166     0
C4       C     0.03125      0            0.166666     0
C1       C     0            0            0.270834     0
C2       C     0.03125      0            0.333334     0
C3       C     0            0            0.354166     0
C4       C     0.03125      0            0.291666     0
C1       C     0            0            0.395834     0
C2       C     0.03125      0            0.458334     0
C3       C     0            0            0.479166     0
C4       C     0.03125      0            0.416666     0
C1       C     0            0            0.520834     0
C2       C     0.03125      0            0.583334     0
C3       C     0            0            0.604166     0
C4       C     0.03125      0            0.541666     0
C1       C     0            0            0.645834     0
C2       C     0.03125      0            0.708334     0
C3       C     0            0            0.729166     0
C4       C     0.03125      0            0.666666     0
C1       C     0            0            0.770834     0
C2       C     0.03125      0            0.833334     0
C3       C     0            0            0.854166     0
C4       C     0.03125      0            0.791666     0
C1       C     0            0            0.895834     0
C2       C     0.03125      0            0.958334     0
C3       C     0            0            0.979166     0
C4       C     0.03125      0            0.916666     0
C1       C     0            0.333333     0.0208338    0
C2       C     0.03125      0.333333     0.0833337    0
C3       C     0            0.333333     0.104166     0
C4       C     0.03125      0.333333     0.0416663    0
C1       C     0            0.333333     0.145834     0
C2       C     0.03125      0.333333     0.208334     0
C3       C     0            0.333333     0.229166     0
C4       C     0.03125      0.333333     0.166666     0
C1       C     0            0.333333     0.270834     0
C2       C     0.03125      0.333333     0.333334     0
C3       C     0            0.333333     0.354166     0
C4       C     0.03125      0.333333     0.291666     0
C1       C     0            0.333333     0.395834     0
C2       C     0.03125      0.333333     0.458334     0
C3       C     0            0.333333     0.479166     0
C4       C     0.03125      0.333333     0.416666     0
C1       C     0            0.333333     0.520834     0
C2       C     0.03125      0.333333     0.583334     0
C3       C     0            0.333333     0.604166     0
C4       C     0.03125      0.333333     0.541666     0
C1       C     0            0.333333     0.645834     0
C2       C     0.03125      0.333333     0.708334     0
C3       C     0            0.333333     0.729166     0
C4       C     0.03125      0.333333     0.666666     0
C1       C     0            0.333333     0.770834     0
C2       C     0.03125      0.333333     0.833334     0
C3       C     0            0.333333     0.854166     0
C4       C     0.03125      0.333333     0.791666     0
C1       C     0            0.333333     0.895834     0
C2       C     0.03125      0.333333     0.958334     0
C3       C     0            0.333333     0.979166     0
C4       C     0.03125      0.333333     0.916666     0
C1       C     0            0.666667     0.0208338    0
C2       C     0.03125      0.666667     0.0833337    0
C3       C     0            0.666667     0.104166     0
C4       C     0.03125      0.666667     0.0416663    0
C1       C     0            0.666667     0.145834     0
C2       C     0.03125      0.666667     0.208334     0
C3       C     0            0.666667     0.229166     0
C4       C     0.03125      0.666667     0.166666     0
C1       C     0            0.666667     0.270834     0
C2       C     0.03125      0.666667     0.333334     0
C3       C     0            0.666667     0.354166     0
C4       C     0.03125      0.666667     0.291666     0
C1       C     0            0.666667     0.395834     0
C2       C     0.03125      0.666667     0.458334     0
C3       C     0            0.666667     0.479166     0
C4       C     0.03125      0.666667     0.416666     0
C1       C     0            0.666667     0.520834     0
C2       C     0.03125      0.666667     0.583334     0
C3       C     0            0.666667     0.604166     0
C4       C     0.03125      0.666667     0.541666     0
C1       C     0            0.666667     0.645834     0
C2       C     0.03125      0.666667     0.708334     0
C3       C     0            0.666667     0.729166     0
C4       C     0.03125      0.666667     0.666666     0
C1       C     0            0.666667     0.770834     0
C2       C     0.03125      0.666667     0.833334     0
C3       C     0            0.666667     0.854166     0
C4       C     0.03125      0.666667     0.791666     0
C1       C     0            0.666667     0.895834     0
C2       C     0.03125      0.666667     0.958334     0
C3       C     0            0.666667     0.979166     0
C4       C     0.03125      0.666667     0.916666     0
C1       C     0.0625       0            0.0208338    0
C2       C     0.09375      0            0.0833337    0
C3       C     0.0625       0            0.104166     0
C4       C     0.09375      0            0.0416663    0
C1       C     0.0625       0            0.145834     0
C2       C     0.09375      0            0.208334     0
C3       C     0.0625       0            0.229166     0
C4       C     0.09375      0            0.166666     0
C1       C     0.0625       0            0.270834     0
C2       C     0.09375      0            0.333334     0
C3       C     0.0625       0            0.354166     0
C4       C     0.09375      0            0.291666     0
C1       C     0.0625       0            0.395834     0
C2       C     0.09375      0            0.458334     0
C3       C     0.0625       0            0.479166     0
C4       C     0.09375      0            0.416666     0
C1       C     0.0625       0            0.520834     0
C2       C     0.09375      0            0.583334     0
C3       C     0.0625       0            0.604166     0
C4       C     0.09375      0            0.541666     0
C1       C     0.0625       0            0.645834     0
C2       C     0.09375      0            0.708334     0
C3       C     0.0625       0            0.729166     0
C4       C     0.09375      0            0.666666     0
C1       C     0.0625       0            0.770834     0
C2       C     0.09375      0            0.833334     0
C3       C     0.0625       0            0.854166     0
C4       C     0.09375      0            0.791666     0
C1       C     0.0625       0            0.895834     0
C2       C     0.09375      0            0.958334     0
C3       C     0.0625       0            0.979166     0
C4       C     0.09375      0            0.916666     0
C1       C     0.0625       0.333333     0.0208338    0
C2       C     0.09375      0.333333     0.0833337    0
C3       C     0.0625       0.333333     0.104166     0
C4       C     0.09375      0.333333     0.0416663    0
C1       C     0.0625       0.333333     0.145834     0
C2       C     0.09375      0.333333     0.208334     0
C3       C     0.0625       0.333333     0.229166     0
C4       C     0.09375      0.333333     0.166666     0
C1       C     0.0625       0.333333     0.270834     0
C2       C     0.09375      0.333333     0.333334     0
C3       C     0.0625       0.333333     0.354166     0
C4       C     0.09375      0.333333     0.291666     0
C1       C     0.0625       0.333333     0.395834     0
C2       C     0.09375      0.333333     0.458334     0
C3       C     0.0625       0.333333     0.479166     0
C4       C     0.09375      0.333333     0.416666     0
C1       C     0.0625       0.333333     0.520834     0
C2       C     0.09375      0.333333     0.583334     0
C3       C     0.0625       0.333333     0.604166     0
C4       C     0.09375      0.333333     0.541666     0
C1       C     0.0625       0.333333     0.645834     0
C2       C     0.09375      0.333333     0.708334     0
C3       C     0.0625       0.333333     0.729166     0
C4       C     0.09375      0.333333     0.666666     0
C1       C     0.0625       0.333333     0.770834     0
C2       C     0.09375      0.333333     0.833334     0
C3       C     0.0625       0.333333     0.854166     0
C4       C     0.09375      0.333333     0.791666     0
C1       C     0.0625       0.333333     0.895834     0
C2       C     0.09375      0.333333     0.958334     0
C3       C     0.0625       0.333333     0.979166     0
C4       C     0.09375      0.333333     0.916666     0
C1       C     0.0625       0.666667     0.0208338    0
C2       C     0.09375      0.666667     0.0833337    0
C3       C     0.0625       0.666667     0.104166     0
C4       C     0.09375      0.666667     0.0416663    0
C1       C     0.0625       0.666667     0.145834     0
C2       C     0.09375      0.666667     0.208334     0
C3       C     0.0625       0.666667     0.229166     0
C4       C     0.09375      0.666667     0.166666     0
C1       C     0.0625       0.666667     0.270834     0
C2       C     0.09375      0.666667     0.333334     0
C3       C     0.0625       0.666667     0.354166     0
C4       C     0.09375      0.666667     0.291666     0
C1       C     0.0625       0.666667     0.395834     0
C2       C     0.09375      0.666667     0.458334     0
C3       C     0.0625       0.666667     0.479166     0
C4       C     0.09375      0.666667     0.416666     0
C1       C     0.0625       0.666667     0.520834     0
C2       C     0.09375      0.666667     0.583334     0
C3       C     0.0625       0.666667     0.604166     0
C4       C     0.09375      0.666667     0.541666     0
C1       C     0.0625       0.666667     0.645834     0
C2       C     0.09375      0.666667     0.708334     0
C3       C     0.0625       0.666667     0.729166     0
C4       C     0.09375      0.666667     0.666666     0
C1       C     0.0625       0.666667     0.770834     0
C2       C     0.09375      0.666667     0.833334     0
C3       C     0.0625       0.666667     0.854166     0
C4       C     0.09375      0.666667     0.791666     0
C1       C     0.0625       0.666667     0.895834     0
C2       C     0.09375      0.666667     0.958334     0
C3       C     0.0625       0.666667     0.979166     0
C4       C     0.09375      0.666667     0.916666     0
C1       C     0.125        0            0.0208338    0
C2       C     0.15625      0            0.0833337    0
C3       C     0.125        0            0.104166     0
C4       C     0.15625      0            0.0416663    0
C1       C     0.125        0            0.145834     0
C2       C     0.15625      0            0.208334     0
C3       C     0.125        0            0.229166     0
C4       C     0.15625      0            0.166666     0
C1       C     0.125        0            0.270834     0
C2       C     0.15625      0            0.333334     0
C3       C     0.125        0            0.354166     0
C4       C     0.15625      0            0.291666     0
C1       C     0.125        0            0.395834     0
C2       C     0.15625      0            0.458334     0
C3       C     0.125        0            0.479166     0
C4       C     0.15625      0            0.416666     0
C1       C     0.125        0            0.520834     0
C2       C     0.15625      0            0.583334     0
C3       C     0.125        0            0.604166     0
C4       C     0.15625      0            0.541666     0
C1       C     0.125        0            0.645834     0
C2       C     0.15625      0            0.708334     0
C3       C     0.125        0            0.729166     0
C4       C     0.15625      0            0.666666     0
C1       C     0.125        0            0.770834     0
C2       C     0.15625      0            0.833334     0
C3       C     0.125        0            0.854166     0
C4       C     0.15625      0            0.791666     0
C1       C     0.125        0            0.895834     0
C2       C     0.15625      0            0.958334     0
C3       C     0.125        0            0.979166     0
C4       C     0.15625      0            0.916666     0
C1       C     0.125        0.333333     0.0208338    0
C2       C     0.15625      0.333333     0.0833337    0
C3       C     0.125        0.333333     0.104166     0
C4       C     0.15625      0.333333     0.0416663    0
C1       C     0.125        0.333333     0.145834     0
C2       C     0.15625      0.333333     0.208334     0
C3       C     0.125        0.333333     0.229166     0
C4       C     0.15625      0.333333     0.166666     0
C1       C     0.125        0.333333     0.270834     0
C2       C     0.15625      0.333333     0.333334     0
C3       C     0.125        0.333333     0.354166     0
C4       C     0.15625      0.333333     0.291666     0
C1       C     0.125        0.333333     0.395834     0
C2       C     0.15625      0.333333     0.458334     0
C3       C     0.125        0.333333     0.479166     0
C4       C     0.15625      0.333333     0.416666     0
C1       C     0.125        0.333333     0.520834     0
C2       C     0.15625      0.333333     0.583334     0
C3       C     0.125        0.333333     0.604166     0
C4       C     0.15625      0.333333     0.541666     0
C1       C     0.125        0.333333     0.645834     0
C2       C     0.15625      0.333333     0.708334     0
C3       C     0.125        0.333333     0.729166     0
C4       C     0.15625      0.333333     0.666666     0
C1       C     0.125        0.333333     0.770834     0
C2       C     0.15625      0.333333     0.833334     0
C3       C     0.125        0.333333     0.854166     0
C4       C     0.15625      0.333333     0.791666     0
C1       C     0.125        0.333333     0.895834     0
C2       C     0.15625      0.333333     0.958334     0
C3       C     0.125        0.333333     0.979166     0
C4       C     0.15625      0.333333     0.916666     0
C1       C     0.125        0.666667     0.0208338    0
C2       C     0.15625      0.666667     0.0833337    0
C3       C     0.125        0.666667     0.104166     0
C4       C     0.15625      0.666667     0.0416663    0
C1       C     0.125        0.666667     0.145834     0
C2       C     0.15625      0.666667     0.208334     0
C3       C     0.125        0.666667     0.229166     0
C4       C     0.15625      0.666667     0.166666     0
C1       C     0.125        0.666667     0.270834     0
C2       C     0.15625      0.666667     0.333334     0
C3       C     0.125        0.666667     0.354166     0
C4       C     0.15625      0.666667     0.291666     0
C1       C     0.125        0.666667     0.395834     0
C2       C     0.15625      0.666667     0.458334     0
C3       C     0.125        0.666667     0.479166     0
C4       C     0.15625      0.666667     0.416666     0
C1       C     0.125        0.666667     0.520834     0
C2       C     0.15625      0.666667     0.583334     0
C3       C     0.125        0.666667     0.604166     0
C4       C     0.15625      0.666667     0.541666     0
C1       C     0.125        0.666667     0.645834     0
C2       C     0.15625      0.666667     0.708334     0
C3       C     0.125        0.666667     0.729166     0
C4       C     0.15625      0.666667     0.666666     0
C1       C     0.125        0.666667     0.770834     0
C2       C     0.15625      0.666667     0.833334     0
C3       C     0.125        0.666667     0.854166     0
C4       C     0.15625      0.666667     0.791666     0
C1       C     0.125        0.666667     0.895834     0
C2       C     0.15625      0.666667     0.958334     0
C3       C     0.125        0.666667     0.979166     0
C4       C     0.15625      0.666667     0.916666     0
C1       C     0.1875       0            0.0208338    0
C2       C     0.21875      0            0.0833337    0
C3       C     0.1875       0            0.104166     0
C4       C     0.21875      0            0.0416663    0
C1       C     0.1875       0            0.145834     0
C2       C     0.21875      0            0.208334     0
C3       C     0.1875       0            0.229166     0
C4       C     0.21875      0            0.166666     0
C1       C     0.1875       0            0.270834     0
C2       C     0.21875      0            0.333334     0
C3       C     0.1875       0            0.354166     0
C4       C     0.21875      0            0.291666     0
C1       C     0.1875       0            0.395834     0
C2       C     0.21875      0            0.458334     0
C3       C     0.1875       0            0.479166     0
C4       C     0.21875      0            0.416666     0
C1       C     0.1875       0            0.520834     0
C2       C     0.21875      0            0.583334     0
C3       C     0.1875       0            0.604166     0
C4       C     0.21875      0            0.541666     0
C1       C     0.1875       0            0.645834     0
C2       C     0.21875      0            0.708334     0
C3       C     0.1875       0            0.729166     0
C4       C     0.21875      0            0.666666     0
C1       C     0.1875       0            0.770834     0
C2       C     0.21875      0            0.833334     0
C3       C     0.1875       0            0.854166     0
C4       C     0.21875      0            0.791666     0
C1       C     0.1875       0            0.895834     0
C2       C     0.21875      0            0.958334     0
C3       C     0.1875       0            0.979166     0
C4       C     0.21875      0            0.916666     0
C1       C     0.1875       0.333333     0.0208338    0
C2       C     0.21875      0.333333     0.0833337    0
C3       C     0.1875       0.333333     0.104166     0
C4       C     0.21875      0.333333     0.0416663    0
C1       C     0.1875       0.333333     0.145834     0
C2       C     0.21875      0.333333     0.208334     0
C3       C     0.1875       0.333333     0.229166     0
C4       C     0.21875      0.333333     0.166666     0
C1       C     0.1875       0.333333     0.270834     0
C2       C     0.21875      0.333333     0.333334     0
C3       C     0.1875       0.333333     0.354166     0
C4       C     0.21875      0.333333     0.291666     0
C1       C     0.1875       0.333333     0.395834     0
C2       C     0.21875      0.333333     0.458334     0
C3       C     0.1875       0.333333     0.479166     0
C4       C     0.21875      0.333333     0.416666     0
C1       C     0.1875       0.333333     0.520834     0
C2       C     0.21875      0.333333     0.583334     0
C3       C     0.1875       0.333333     0.604166     0
C4       C     0.21875      0.333333     0.541666     0
C1       C     0.1875       0.333333     0.645834     0
C2       C     0.21875      0.333333     0.708334     0
C3       C     0.1875       0.333333     0.729166     0
C4       C     0.21875      0.333333     0.666666     0
C1       C     0.1875       0.333333     0.770834     0
C2       C     0.21875      0.333333     0.833334     0
C3       C     0.1875       0.333333     0.854166     0
C4       C     0.21875      0.333333     0.791666     0
C1       C     0.1875       0.333333     0.895834     0
C2       C     0.21875      0.333333     0.958334     0
C3       C     0.1875       0.333333     0.979166     0
C4       C     0.21875      0.333333     0.916666     0
C1       C     0.1875       0.666667     0.0208338    0
C2       C     0.21875      0.666667     0.0833337    0
C3       C     0.1875       0.666667     0.104166     0
C4       C     0.21875      0.666667     0.0416663    0
C1       C     0.1875       0.666667     0.145834     0
C2       C     0.21875      0.666667     0.208334     0
C3       C     0.1875       0.666667     0.229166     0
C4       C     0.21875      0.666667     0.166666     0
C1       C     0.1875       0.666667     0.270834     0
C2       C     0.21875      0.666667     0.333334     0
C3       C     0.1875       0.666667     0.354166     0
C4       C     0.21875      0.666667     0.291666     0
C1       C     0.1875       0.666667     0.395834     0
C2       C     0.21875      0.666667     0.458334     0
C3       C     0.1875       0.666667     0.479166     0
C4       C     0.21875      0.666667     0.416666     0
C1       C     0.1875       0.666667     0.520834     0
C2       C     0.21875      0.666667     0.583334     0
C3       C     0.1875       0.666667     0.604166     0
C4       C     0.21875      0.666667     0.541666     0
C1       C     0.1875       0.666667     0.645834     0
C2       C     0.21875      0.666667     0.708334     0
C3       C     0.1875       0.666667     0.729166     0
C4       C     0.21875      0.666667     0.666666     0
C1       C     0.1875       0.666667     0.770834     0
C2       C     0.21875      0.666667     0.833334     0
C3       C     0.1875       0.666667     0.854166     0
C4       C     0.21875      0.666667     0.791666     0
C1       C     0.1875       0.666667     0.895834     0
C2       C     0.21875      0.666667     0.958334     0
C3       C     0.1875       0.666667     0.979166     0
C4       C     0.21875      0.666667     0.916666     0
C1       C     0.25         0            0.0208338    0
C2       C     0.28125      0            0.0833337    0
C3       C     0.25         0            0.104166     0
C4       C     0.28125      0            0.0416663    0
C1       C     0.25         0            0.145834     0
C2       C     0.28125      0            0.208334     0
C3       C     0.25         0            0.229166     0
C4       C     0.28125      0            0.166666     0
C1       C     0.25         0            0.270834     0
C2       C     0.28125      0            0.333334     0
C3       C     0.25         0            0.354166     0
C4       C     0.28125      0            0.291666     0
C1       C     0.25         0            0.395834     0
C2       C     0.28125      0            0.458334     0
C3       C     0.25         0            0.479166     0
C4       C     0.28125      0            0.416666     0
C1       C     0.25         0            0.520834     0
C2       C     0.28125      0            0.583334     0
C3       C     0.25         0            0.604166     0
C4       C     0.28125      0            0.541666     0
C1       C     0.25         0            0.645834     0
C2       C     0.28125      0            0.708334     0
C3       C     0.25         0            0.729166     0
C4       C     0.28125      0            0.666666     0
C1       C     0.25         0            0.770834     0
C2       C     0.28125      0            0.833334     0
C3       C     0.25         0            0.854166     0
C4       C     0.28125      0            0.791666     0
C1       C     0.25         0            0.895834     0
C2       C     0.28125      0            0.958334     0
C3       C     0.25         0            0.979166     0
C4       C     0.28125      0            0.916666     0
C1       C     0.25         0.333333     0.0208338    0
C2       C     0.28125      0.333333     0.0833337    0
C3       C     0.25         0.333333     0.104166     0
C4       C     0.28125      0.333333     0.0416663    0
C1       C     0.25         0.333333     0.145834     0
C2       C     0.28125      0.333333     0.208334     0
C3       C     0.25         0.333333     0.229166     0
C4       C     0.28125      0.333333     0.166666     0
C1       C     0.25         0.333333     0.270834     0
C2       C     0.28125      0.333333     0.333334     0
C3       C     0.25         0.333333     0.354166     0
C4       C     0.28125      0.333333     0.291666     0
C1       C     0.25         0.333333     0.395834     0
C2       C     0.28125      0.333333     0.458334     0
C3       C     0.25         0.333333     0.479166     0
C4       C     0.28125      0.333333     0.416666     0
C1       C     0.25         0.333333     0.520834     0
C2       C     0.28125      0.333333     0.583334     0
C3       C     0.25         0.333333     0.604166     0
C4       C     0.28125      0.333333     0.541666     0
C1       C     0.25         0.333333     0.645834     0
C2       C     0.28125      0.333333     0.708334     0
C3       C     0.25         0.333333     0.729166     0
C4       C     0.28125      0.333333     0.666666     0
C1       C     0.25         0.333333     0.770834     0
C2       C     0.28125      0.333333     0.833334     0
C3       C     0.25         0.333333     0.854166     0
C4       C     0.28125      0.333333     0.791666     0
C1       C     0.25         0.333333     0.895834     0
C2       C     0.28125      0.333333     0.958334     0
C3       C     0.25         0.333333     0.979166     0
C4       C     0.28125      0.333333     0.916666     0
C1       C     0.25         0.666667     0.0208338    0
C2       C     0.28125      0.666667     0.0833337    0
C3       C     0.25         0.666667     0.104166     0
C4       C     0.28125      0.666667     0.0416663    0
C1       C     0.25         0.666667     0.145834     0
C2       C     0.28125      0.666667     0.208334     0
C3       C     0.25         0.666667     0.229166     0
C4       C     0.28125      0.666667     0.166666     0
C1       C     0.25         0.666667     0.270834     0
C2       C     0.28125      0.666667     0.333334     0
C3       C     0.25         0.666667     0.354166     0
C4       C     0.28125      0.666667     0.291666     0
C1       C     0.25         0.666667     0.395834     0
C2       C     0.28125      0.666667     0.458334     0
C3       C     0.25         0.666667     0.479166     0
C4       C     0.28125      0.666667     0.416666     0
C1       C     0.25         0.666667     0.520834     0
C2       C     0.28125      0.666667     0.583334     0
C3       C     0.25         0.666667     0.604166     0
C4       C     0.28125      0.666667     0.541666     0
C1       C     0.25         0.666667     0.645834     0
C2       C     0.28125      0.666667     0.708334     0
C3       C     0.25         0.666667     0.729166     0
C4       C     0.28125      0.666667     0.666666     0
C1       C     0.25         0.666667     0.770834     0
C2       C     0.28125      0.666667     0.833334     0
C3       C     0.25         0.666667     0.854166     0
C4       C     0.28125      0.666667     0.791666     0
C1       C     0.25         0.666667     0.895834     0
C2       C     0.28125      0.666667     0.958334     0
C3       C     0.25         0.666667     0.979166     0
C4       C     0.28125      0.666667     0.916666     0
C1       C     0.3125       0            0.0208338    0
C2       C     0.34375      0            0.0833337    0
C3       C     0.3125       0            0.104166     0
C4       C     0.34375      0            0.0416663    0
C1       C     0.3125       0            0.145834     0
C2       C     0.34375      0            0.208334     0
C3       C     0.3125       0            0.229166     0
C4       C     0.34375      0            0.166666     0
C1       C     0.3125       0            0.270834     0
C2       C     0.34375      0            0.333334     0
C3       C     0.3125       0            0.354166     0
C4       C     0.34375      0            0.291666     0
C1       C     0.3125       0            0.395834     0
C2       C     0.34375      0            0.458334     0
C3       C     0.3125       0            0.479166     0
C4       C     0.34375      0            0.416666     0
C1       C     0.3125       0            0.520834     0
C2       C     0.34375      0            0.583334     0
C3       C     0.3125       0            0.604166     0
C4       C     0.34375      0            0.541666     0
C1       C     0.3125       0            0.645834     0
C2       C     0.34375      0            0.708334     0
C3       C     0.3125       0            0.729166     0
C4       C     0.34375      0            0.666666     0
C1       C     0.3125       0            0.770834     0
C2       C     0.34375      0            0.833334     0
C3       C     0.3125       0            0.854166     0
C4       C     0.34375      0            0.791666     0
C1       C     0.3125       0            0.895834     0
C2       C     0.34375      0            0.958334     0
C3       C     0.3125       0            0.979166     0
C4       C     0.34375      0            0.916666     0
C1       C     0.3125       0.333333     0.0208338    0
C2       C     0.34375      0.333333     0.0833337    0
C3       C     0.3125       0.333333     0.104166     0
C4       C     0.34375      0.333333     0.0416663    0
C1       C     0.3125       0.333333     0.145834     0
C2       C     0.34375      0.333333     0.208334     0
C3       C     0.3125       0.333333     0.229166     0
C4       C     0.34375      0.333333     0.166666     0
C1       C     0.3125       0.333333     0.270834     0
C2       C     0.34375      0.333333     0.333334     0
C3       C     0.3125       0.333333     0.354166     0
C4       C     0.34375      0.333333     0.291666     0
C1       C     0.3125       0.333333     0.395834     0
C2       C     0.34375      0.333333     0.458334     0
C3       C     0.3125       0.333333     0.479166     0
C4       C     0.34375      0.333333     0.416666     0
C1       C     0.3125       0.333333     0.520834     0
C2       C     0.34375      0.333333     0.583334     0
C3       C     0.3125       0.333333     0.604166     0
C4       C     0.34375      0.333333     0.541666     0
C1       C     0.3125       0.333333     0.645834     0
C2       C     0.34375      0.333333     0.708334     0
C3       C     0.3125       0.333333     0.729166     0
C4       C     0.34375      0.333333     0.666666     0
C1       C     0.3125       0.333333     0.770834     0
C2       C     0.34375      0.333333     0.833334     0
C3       C     0.3125       0.333333     0.854166     0
C4       C     0.34375      0.333333     0.791666     0
C1       C     0.3125       0.333333     0.895834     0
C2       C     0.34375      0.333333     0.958334     0
C3       C     0.3125       0.333333     0.979166     0
C4       C     0.34375      0.333333     0.916666     0
C1       C     0.3125       0.666667     0.0208338    0
C2       C     0.34375      0.666667     0.0833337    0
C3       C     0.3125       0.666667     0.104166     0
C4       C     0.34375      0.666667     0.0416663    0
C1       C     0.3125       0.666667     0.145834     0
C2       C     0.34375      0.666667     0.208334     0
C3       C     0.3125       0.666667     0.229166     0
C4       C     0.34375      0.666667     0.166666     0
C1       C     0.3125       0.666667     0.270834     0
C2       C     0.34375      0.666667     0.333334     0
C3       C     0.3125       0.666667     0.354166     0
C4       C     0.34375      0.666667     0.291666     0
C1       C     0.3125       0.666667     0.395834     0
C2       C     0.34375      0.666667     0.458334     0
C3       C     0.3125       0.666667     0.479166     0
C4       C     0.34375      0.666667     0.416666     0
C1       C     0.3125       0.666667     0.520834     0
C2       C     0.34375      0.666667     0.583334     0
C3       C     0.3125       0.666667     0.604166     0
C4       C     0.34375      0.666667     0.541666     0
C1       C     0.3125       0.666667     0.645834     0
C2       C     0.34375      0.666667     0.708334     0
C3       C     0.3125       0.666667     0.729166     0
C4       C     0.34375      0.666667     0.666666     0
C1       C     0.3125       0.666667     0.770834     0
C2       C     0.34375      0.666667     0.833334     0
C3       C     0.3125       0.666667     0.854166     0
C4       C     0.34375      0.666667     0.791666     0
C1       C     0.3125       0.666667     0.895834     0
C2       C     0.34375      0.666667     0.958334     0
C3       C     0.3125       0.666667     0.979166     0
C4       C     0.34375      0.666667     0.916666     0
C1       C     0.375        0            0.0208338    0
C2       C     0.40625      0            0.0833337    0
C3       C     0.375        0            0.104166     0
C4       C     0.40625      0            0.0416663    0
C1       C     0.375        0            0.145834     0
C2       C     0.40625      0            0.208334     0
C3       C     0.375        0            0.229166     0
C4       C     0.40625      0            0.166666     0
C1       C     0.375        0            0.270834     0
C2       C     0.40625      0            0.333334     0
C3       C     0.375        0            0.354166     0
C4       C     0.40625      0            0.291666     0
C1       C     0.375        0            0.395834     0
C2       C     0.40625      0            0.458334     0
C3       C     0.375        0            0.479166     0
C4       C     0.40625      0            0.416666     0
C1       C     0.375        0            0.520834     0
C2       C     0.40625      0            0.583334     0
C3       C     0.375        0            0.604166     0
C4       C     0.40625      0            0.541666     0
C1       C     0.375        0            0.645834     0
C2       C     0.40625      0            0.708334     0
C3       C     0.375        0            0.729166     0
C4       C     0.40625      0            0.666666     0
C1       C     0.375        0            0.770834     0
C2       C     0.40625      0            0.833334     0
C3       C     0.375        0            0.854166     0
C4       C     0.40625      0            0.791666     0
C1       C     0.375        0            0.895834     0
C2       C     0.40625      0            0.958334     0
C3       C     0.375        0            0.979166     0
C4       C     0.40625      0            0.916666     0
C1       C     0.375        0.333333     0.0208338    0
C2       C     0.40625      0.333333     0.0833337    0
C3       C     0.375        0.333333     0.104166     0
C4       C     0.40625      0.333333     0.0416663    0
C1       C     0.375        0.333333     0.145834     0
C2       C     0.40625      0.333333     0.208334     0
C3       C     0.375        0.333333     0.229166     0
C4       C     0.40625      0.333333     0.166666     0
C1       C     0.375        0.333333     0.270834     0
C2       C     0.40625      0.333333     0.333334     0
C3       C     0.375        0.333333     0.354166     0
C4       C     0.40625      0.333333     0.291666     0
C1       C     0.375        0.333333     0.395834     0
C2       C     0.40625      0.333333     0.458334     0
C3       C     0.375        0.333333     0.479166     0
C4       C     0.40625      0.333333     0.416666     0
C1       C     0.375        0.333333     0.520834     0
C2       C     0.40625      0.333333     0.583334     0
C3       C     0.375        0.333333     0.604166     0
C4       C     0.40625      0.333333     0.541666     0
C1       C     0.375        0.333333     0.645834     0
C2       C     0.40625      0.333333     0.708334     0
C3       C     0.375        0.333333     0.729166     0
C4       C     0.40625      0.333333     0.666666     0
C1       C     0.375        0.333333     0.770834     0
C2       C     0.40625      0.333333     0.833334     0
C3       C     0.375        0.333333     0.854166     0
C4       C     0.40625      0.333333     0.791666     0
C1       C     0.375        0.333333     0.895834     0
C2       C     0.40625      0.333333     0.958334     0
C3       C     0.375        0.333333     0.979166     0
C4       C     0.40625      0.333333     0.916666     0
C1       C     0.375        0.666667     0.0208338    0
C2       C     0.40625      0.666667     0.0833337    0
C3       C     0.375        0.666667     0.104166     0
C4       C     0.40625      0.666667     0.0416663    0
C1       C     0.375        0.666667     0.145834     0
C2       C     0.40625      0.666667     0.208334     0
C3       C     0.375        0.666667     0.229166     0
C4       C     0.40625      0.666667     0.166666     0
C1       C     0.375        0.666667     0.270834     0
C2       C     0.40625      0.666667     0.333334     0
C3       C     0.375        0.666667     0.354166     0
C4       C     0.40625      0.666667     0.291666     0
C1       C     0.375        0.666667     0.395834     0
C2       C     0.40625      0.666667     0.458334     0
C3       C     0.375        0.666667     0.479166     0
C4       C     0.40625      0.666667     0.416666     0
C1       C     0.375        0.666667     0.520834     0
C2       C     0.40625      0.666667     0.583334     0
C3       C     0.375        0.666667     0.604166     0
C4       C     0.40625      0.666667     0.541666     0
C1       C     0.375        0.666667     0.645834     0
C2       C     0.40625      0.666667     0.708334     0
C3       C     0.375        0.666667     0.729166     0
C4       C     0.40625      0.666667     0.666666     0
C1       C     0.375        0.666667     0.770834     0
C2       C     0.40625      0.666667     0.833334     0
C3       C     0.375        0.666667     0.854166     0
C4       C     0.40625      0.666667     0.791666     0
C1       C     0.375        0.666667     0.895834     0
C2       C     0.40625      0.666667     0.958334     0
C3       C     0.375        0.666667     0.979166     0
C4       C     0.40625      0.666667     0.916666     0
C1       C     0.4375       0            0.0208338    0
C2       C     0.46875      0            0.0833337    0
C3       C     0.4375       0            0.104166     0
C4       C     0.46875      0            0.0416663    0
C1       C     0.4375       0            0.145834     0
C2       C     0.46875      0            0.208334     0
C3       C     0.4375       0            0.229166     0
C4       C     0.46875      0            0.166666     0
C1       C     0.4375       0            0.270834     0
C2       C     0.46875      0            0.333334     0
C3       C     0.4375       0            0.354166     0
C4       C     0.46875      0            0.291666     0
C1       C     0.4375       0            0.395834     0
C2       C     0.46875      0            0.458334     0
C3       C     0.4375       0            0.479166     0
C4       C     0.46875      0            0.416666     0
C1       C     0.4375       0            0.520834     0
C2       C     0.46875      0            0.583334     0
C3       C     0.4375       0            0.604166     0
C4       C     0.46875      0            0.541666     0
C1       C     0.4375       0            0.645834     0
C2       C     0.46875      0            0.708334     0
C3       C     0.4375       0            0.729166     0
C4       C     0.46875      0            0.666666     0
C1       C     0.4375       0            0.770834     0
C2       C     0.46875      0            0.833334     0
C3       C     0.4375       0            0.854166     0
C4       C     0.46875      0            0.791666     0
C1       C     0.4375       0            0.895834     0
C2       C     0.46875      0            0.958334     0
C3       C     0.4375       0            0.979166     0
C4       C     0.46875      0            0.916666     0
C1       C     0.4375       0.333333     0.0208338    0
C2       C     0.46875      0.333333     0.0833337    0
C3       C     0.4375       0.333333     0.104166     0
C4       C     0.46875      0.333333     0.0416663    0
C1       C     0.4375       0.333333     0.145834     0
C2       C     0.46875      0.333333     0.208334     0
C3       C     0.4375       0.333333     0.229166     0
C4       C     0.46875      0.333333     0.166666     0
C1       C     0.4375       0.333333     0.270834     0
C2       C     0.46875      0.333333     0.333334     0
C3       C     0.4375       0.333333     0.354166     0
C4       C     0.46875      0.333333     0.291666     0
C1       C     0.4375       0.333333     0.395834     0
C2       C     0.46875      0.333333     0.458334     0
C3       C     0.4375       0.333333     0.479166     0
C4       C     0.46875      0.333333     0.416666     0
C1       C     0.4375       0.333333     0.520834     0
C2       C     0.46875      0.333333     0.583334     0
C3       C     0.4375       0.333333     0.604166     0
C4       C     0.46875      0.333333     0.541666     0
C1       C     0.4375       0.333333     0.645834     0
C2       C     0.46875      0.333333     0.708334     0
C3       C     0.4375       0.333333     0.729166     0
C4       C     0.46875      0.333333     0.666666     0
C1       C     0.4375       0.333333     0.770834     0
C2       C     0.46875      0.333333     0.833334     0
C3       C     0.4375       0.333333     0.854166     0
C4       C     0.46875      0.333333     0.791666     0
C1       C     0.4375       0.333333     0.895834     0
C2       C     0.46875      0.333333     0.958334     0
C3       C     0.4375       0.333333     0.979166     0
C4       C     0.46875      0.333333     0.916666     0
C1       C     0.4375       0.666667     0.0208338    0
C2       C     0.46875      0.666667     0.0833337    0
C3       C     0.4375       0.666667     0.104166     0
C4       C     0.46875      0.666667     0.0416663    0
C1       C     0.4375       0.666667     0.145834     0
C2       C     0.46875      0.666667     0.208334     0
C3       C     0.4375       0.666667     0.229166     0
C4       C     0.46875      0.666667     0.166666     0
C1       C     0.4375       0.666667     0.270834     0
C2       C     0.46875      0.666667     0.333334     0
C3       C     0.4375       0.666667     0.354166     0
C4       C     0.46875      0.666667     0.291666     0
C1       C     0.4375       0.666667     0.395834     0
C2       C     0.46875      0.666667     0.458334     0
C3       C     0.4375       0.666667     0.479166     0
C4       C     0.46875      0.666667     0.416666     0
C1       C     0.4375       0.666667     0.520834     0
C2       C     0.46875      0.666667     0.583334     0
C3       C     0.4375       0.666667     0.604166     0
C4       C     0.46875      0.666667     0.541666     0
C1       C     0.4375       0.666667     0.645834     0
C2       C     0.46875      0.666667     0.708334     0
C3       C     0.4375       0.666667     0.729166     0
C4       C     0.46875      0.666667     0.666666     0
C1       C     0.4375       0.666667     0.770834     0
C2       C     0.46875      0.666667     0.833334     0
C3       C     0.4375       0.666667     0.854166     0
C4       C     0.46875      0.666667     0.791666     0
C1       C     0.4375       0.666667     0.895834     0
C2       C     0.46875      0.666667     0.958334     0
C3       C     0.4375       0.666667     0.979166     0
C4       C     0.46875      0.666667     0.916666     0
C1       C     0.5          0            0.0208338    0
C2       C     0.53125      0            0.0833337    0
C3       C     0.5          0            0.104166     0
C4       C     0.53125      0            0.0416663    0
C1       C     0.5          0            0.145834     0
C2       C     0.53125      0            0.208334     0
C3       C     0.5          0            0.229166     0
C4       C     0.53125      0            0.166666     0
C1       C     0.5          0            0.270834     0
C2       C     0.53125      0            0.333334     0
C3       C     0.5          0            0.354166     0
C4       C     0.53125      0            0.291666     0
C1       C     0.5          0            0.395834     0
C2       C     0.53125      0            0.458334     0
C3       C     0.5          0            0.479166     0
C4       C     0.53125      0            0.416666     0
C1       C     0.5          0            0.520834     0
C2       C     0.53125      0            0.583334     0
C3       C     0.5          0            0.604166     0
C4       C     0.53125      0            0.541666     0
C1       C     0.5          0            0.645834     0
C2       C     0.53125      0            0.708334     0
C3       C     0.5          0            0.729166     0
C4       C     0.53125      0            0.666666     0
C1       C     0.5          0            0.770834     0
C2       C     0.53125      0            0.833334     0
C3       C     0.5          0            0.854166     0
C4       C     0.53125      0            0.791666     0
C1       C     0.5          0            0.895834     0
C2       C     0.53125      0            0.958334     0
C3       C     0.5          0            0.979166     0
C4       C     0.53125      0            0.916666     0
C1       C     0.5          0.333333     0.0208338    0
C2       C     0.53125      0.333333     0.0833337    0
C3       C     0.5          0.333333     0.104166     0
C4       C     0.53125      0.333333     0.0416663    0
C1       C     0.5          0.333333     0.145834     0
C2       C     0.53125      0.333333     0.208334     0
C3       C     0.5          0.333333     0.229166     0
C4       C     0.53125      0.333333     0.166666     0
C1       C     0.5          0.333333     0.270834     0
C2       C     0.53125      0.333333     0.333334     0
C3       C     0.5          0.333333     0.354166     0
C4       C     0.53125      0.333333     0.291666     0
C1       C     0.5          0.333333     0.395834     0
C2       C     0.53125      0.333333     0.458334     0
C3       C     0.5          0.333333     0.479166     0
C4       C     0.53125      0.333333     0.416666     0
C1       C     0.5          0.333333     0.520834     0
C2       C     0.53125      0.333333     0.583334     0
C3       C     0.5          0.333333     0.604166     0
C4       C     0.53125      0.333333     0.541666     0
C1       C     0.5          0.333333     0.645834     0
C2       C     0.53125      0.333333     0.708334     0
C3       C     0.5          0.333333     0.729166     0
C4       C     0.53125      0.333333     0.666666     0
C1       C     0.5          0.333333     0.770834     0
C2       C     0.53125      0.333333     0.833334     0
C3       C     0.5          0.333333     0.854166     0
C4       C     0.53125      0.333333     0.791666     0
C1       C     0.5          0.333333     0.895834     0
C2       C     0.53125      0.333333     0.958334     0
C3       C     0.5          0.333333     0.979166     0
C4       C     0.53125      0.333333     0.916666     0
C1       C     0.5          0.666667     0.0208338    0
C2       C     0.53125      0.666667     0.0833337    0
C3       C     0.5          0.666667     0.104166     0
C4       C     0.53125      0.666667     0.0416663    0
C1       C     0.5          0.666667     0.145834     0
C2       C     0.53125      0.666667     0.208334     0
C3       C     0.5          0.666667     0.229166     0
C4       C     0.53125      0.666667     0.166666     0
C1       C     0.5          0.666667     0.270834     0
C2       C     0.53125      0.666667     0.333334     0
C3       C     0.5          0.666667     0.354166     0
C4       C     0.53125      0.666667     0.291666     0
C1       C     0.5          0.666667     0.395834     0
C2       C     0.53125      0.666667     0.458334     0
C3       C     0.5          0.666667     0.479166     0
C4       C     0.53125      0.666667     0.416666     0
C1       C     0.5          0.666667     0.520834     0
C2       C     0.53125      0.666667     0.583334     0
C3       C     0.5          0.666667     0.604166     0
C4       C     0.53125      0.666667     0.541666     0
C1       C     0.5          0.666667     0.645834     0
C2       C     0.53125      0.666667     0.708334     0
C3       C     0.5          0.666667     0.729166     0
C4       C     0.53125      0.666667     0.666666     0
C1       C     0.5          0.666667     0.770834     0
C2       C     0.53125      0.666667     0.833334     0
C3       C     0.5          0.666667     0.854166     0
C4       C     0.53125      0.666667     0.791666     0
C1       C     0.5          0.666667     0.895834     0
C2       C     0.53125      0.666667     0.958334     0
C3       C     0.5          0.666667     0.979166     0
C4       C     0.53125      0.666667     0.916666     0
C1       C     0.5625       0            0.0208338    0
C2       C     0.59375      0            0.0833337    0
C3       C     0.5625       0            0.104166     0
C4       C     0.59375      0            0.0416663    0
C1       C     0.5625       0            0.145834     0
C2       C     0.59375      0            0.208334     0
C3       C     0.5625       0            0.229166     0
C4       C     0.59375      0            0.166666     0
C1       C     0.5625       0            0.270834     0
C2       C     0.59375      0            0.333334     0
C3       C     0.5625       0            0.354166     0
C4       C     0.59375      0            0.291666     0
C1       C     0.5625       0            0.395834     0
C2       C     0.59375      0            0.458334     0
C3       C     0.5625       0            0.479166     0
C4       C     0.59375      0            0.416666     0
C1       C     0.5625       0            0.520834     0
C2       C     0.59375      0            0.583334     0
C3       C     0.5625       0            0.604166     0
C4       C     0.59375      0            0.541666     0
C1       C     0.5625       0            0.645834     0
C2       C     0.59375      0            0.708334     0
C3       C     0.5625       0            0.729166     0
C4       C     0.59375      0            0.666666     0
C1       C     0.5625       0            0.770834     0
C2       C     0.59375      0            0.833334     0
C3       C     0.5625       0            0.854166     0
C4       C     0.59375      0            0.791666     0
C1       C     0.5625       0            0.895834     0
C2       C     0.59375      0            0.958334     0
C3       C     0.5625       0            0.979166     0
C4       C     0.59375      0            0.916666     0
C1       C     0.5625       0.333333     0.0208338    0
C2       C     0.59375      0.333333     0.0833337    0
C3       C     0.5625       0.333333     0.104166     0
C4       C     0.59375      0.333333     0.0416663    0
C1       C     0.5625       0.333333     0.145834     0
C2       C     0.59375      0.333333     0.208334     0
C3       C     0.5625       0.333333     0.229166     0
C4       C     0.59375      0.333333     0.166666     0
C1       C     0.5625       0.333333     0.270834     0
C2       C     0.59375      0.333333     0.333334     0
C3       C     0.5625       0.333333     0.354166     0
C4       C     0.59375      0.333333     0.291666     0
C1       C     0.5625       0.333333     0.395834     0
C2       C     0.59375      0.333333     0.458334     0
C3       C     0.5625       0.333333     0.479166     0
C4       C     0.59375      0.333333     0.416666     0
C1       C     0.5625       0.333333     0.520834     0
C2       C     0.59375      0.333333     0.583334     0
C3       C     0.5625       0.333333     0.604166     0
C4       C     0.59375      0.333333     0.541666     0
C1       C     0.5625       0.333333     0.645834     0
C2       C     0.59375      0.333333     0.708334     0
C3       C     0.5625       0.333333     0.729166     0
C4       C     0.59375      0.333333     0.666666     0
C1       C     0.5625       0.333333     0.770834     0
C2       C     0.59375      0.333333     0.833334     0
C3       C     0.5625       0.333333     0.854166     0
C4       C     0.59375      0.333333     0.791666     0
C1       C     0.5625       0.333333     0.895834     0
C2       C     0.59375      0.333333     0.958334     0
C3       C     0.5625       0.333333     0.979166     0
C4       C     0.59375      0.333333     0.916666     0
C1       C     0.5625       0.666667     0.0208338    0
C2       C     0.59375      0.666667     0.0833337    0
C3       C     0.5625       0.666667     0.104166     0
C4       C     0.59375      0.666667     0.0416663    0
C1       C     0.5625       0.666667     0.145834     0
C2       C     0.59375      0.666667     0.208334     0
C3       C     0.5625       0.666667     0.229166     0
C4       C     0.59375      0.666667     0.166666     0
C1       C     0.5625       0.666667     0.270834     0
C2       C     0.59375      0.666667     0.333334     0
C3       C     0.5625       0.666667     0.354166     0
C4       C     0.59375      0.666667     0.291666     0
C1       C     0.5625       0.666667     0.395834     0
C2       C     0.59375      0.666667     0.458334     0
C3       C     0.5625       0.666667     0.479166     0
C4       C     0.59375      0.666667     0.416666     0
C1       C     0.5625       0.666667     0.520834     0
C2       C     0.59375      0.666667     0.583334     0
C3       C     0.5625       0.666667     0.604166     0
C4       C     0.59375      0.666667     0.541666     0
C1       C     0.5625       0.666667     0.645834     0
C2       C     0.59375      0.666667     0.708334     0
C3       C     0.5625       0.666667     0.729166     0
C4       C     0.59375      0.666667     0.666666     0
C1       C     0.5625       0.666667     0.770834     0
C2       C     0.59375      0.666667     0.833334     0
C3       C     0.5625       0.666667     0.854166     0
C4       C     0.59375      0.666667     0.791666     0
C1       C     0.5625       0.666667     0.895834     0
C2       C     0.59375      0.666667     0.958334     0
C3       C     0.5625       0.666667     0.979166     0
C4       C     0.59375      0.666667     0.916666     0
C1       C     0.625        0            0.0208338    0
C2       C     0.65625      0            0.0833337    0
C3       C     0.625        0            0.104166     0
C4       C     0.65625      0            0.0416663    0
C1       C     0.625        0            0.145834     0
C2       C     0.65625      0            0.208334     0
C3       C     0.625        0            0.229166     0
C4       C     0.65625      0            0.166666     0
C1       C     0.625        0            0.270834     0
C2       C     0.65625      0            0.333334     0
C3       C     0.625        0            0.354166     0
C4       C     0.65625      0            0.291666     0
C1       C     0.625        0            0.395834     0
C2       C     0.65625      0            0.458334     0
C3       C     0.625        0            0.479166     0
C4       C     0.65625      0            0.416666     0
C1       C     0.625        0            0.520834     0
C2       C     0.65625      0            0.583334     0
C3       C     0.625        0            0.604166     0
C4       C     0.65625      0            0.541666     0
C1       C     0.625        0            0.645834     0
C2       C     0.65625      0            0.708334     0
C3       C     0.625        0            0.729166     0
C4       C     0.65625      0            0.666666     0
C1       C     0.625        0            0.770834     0
C2       C     0.65625      0            0.833334     0
C3       C     0.625        0            0.854166     0
C4       C     0.65625      0            0.791666     0
C1       C     0.625        0            0.895834     0
C2       C     0.65625      0            0.958334     0
C3       C     0.625        0            0.979166     0
C4       C     0.65625      0            0.916666     0
C1       C     0.625        0.333333     0.0208338    0
C2       C     0.65625      0.333333     0.0833337    0
C3       C     0.625        0.333333     0.104166     0
C4       C     0.65625      0.333333     0.0416663    0
C1       C     0.625        0.333333     0.145834     0
C2       C     0.65625      0.333333     0.208334     0
C3       C     0.625        0.333333     0.229166     0
C4       C     0.65625      0.333333     0.166666     0
C1       C     0.625        0.333333     0.270834     0
C2       C     0.65625      0.333333     0.333334     0
C3       C     0.625        0.333333     0.354166     0
C4       C     0.65625      0.333333     0.291666     0
C1       C     0.625        0.333333     0.395834     0
C2       C     0.65625      0.333333     0.458334     0
C3       C     0.625        0.333333     0.479166     0
C4       C     0.65625      0.333333     0.416666     0
C1       C     0.625        0.333333     0.520834     0
C2       C     0.65625      0.333333     0.583334     0
C3       C     0.625        0.333333     0.604166     0
C4       C     0.65625      0.333333     0.541666     0
C1       C     0.625        0.333333     0.645834     0
C2       C     0.65625      0.333333     0.708334     0
C3       C     0.625        0.333333     0.729166     0
C4       C     0.65625      0.333333     0.666666     0
C1       C     0.625        0.333333     0.770834     0
C2       C     0.65625      0.333333     0.833334     0
C3       C     0.625        0.333333     0.854166     0
C4       C     0.65625      0.333333     0.791666     0
C1       C     0.625        0.333333     0.895834     0
C2       C     0.65625      0.333333     0.958334     0
C3       C     0.625        0.333333     0.979166     0
C4       C     0.65625      0.333333     0.916666     0
C1       C     0.625        0.666667     0.0208338    0
C2       C     0.65625      0.666667     0.0833337    0
C3       C     0.625        0.666667     0.104166     0
C4       C     0.65625      0.666667     0.0416663    0
C1       C     0.625        0.666667     0.145834     0
C2       C     0.65625      0.666667     0.208334     0
C3       C     0.625        0.666667     0.229166     0
C4       C     0.65625      0.666667     0.166666     0
C1       C     0.625        0.666667     0.270834     0
C2       C     0.65625      0.666667     0.333334     0
C3       C     0.625        0.666667     0.354166     0
C4       C     0.65625      0.666667     0.291666     0
C1       C     0.625        0.666667     0.395834     0
C2       C     0.65625      0.666667     0.458334     0
C3       C     0.625        0.666667     0.479166     0
C4       C     0.65625      0.666667     0.416666     0
C1       C     0.625        0.666667     0.520834     0
C2       C     0.65625      0.666667     0.583334     0
C3       C     0.625        0.666667     0.604166     0
C4       C     0.65625      0.666667     0.541666     0
C1       C     0.625        0.666667     0.645834     0
C2       C     0.65625      0.666667     0.708334     0
C3       C     0.625        0.666667     0.729166     0
C4       C     0.65625      0.666667     0.666666     0
C1       C     0.625        0.666667     0.770834     0
C2       C     0.65625      0.666667     0.833334     0
C3       C     0.625        0.666667     0.854166     0
C4       C     0.65625      0.666667     0.791666     0
C1       C     0.625        0.666667     0.895834     0
C2       C     0.65625      0.666667     0.958334     0
C3       C     0.625        0.666667     0.979166     0
C4       C     0.65625      0.666667     0.916666     0
C1       C     0.6875       0            0.0208338    0
C2       C     0.71875      0            0.0833337    0
C3       C     0.6875       0            0.104166     0
C4       C     0.71875      0            0.0416663    0
C1       C     0.6875       0            0.145834     0
C2       C     0.71875      0            0.208334     0
C3       C     0.6875       0            0.229166     0
C4       C     0.71875      0            0.166666     0
C1       C     0.6875       0            0.270834     0
C2       C     0.71875      0            0.333334     0
C3       C     0.6875       0            0.354166     0
C4       C     0.71875      0            0.291666     0
C1       C     0.6875       0            0.395834     0
C2       C     0.71875      0            0.458334     0
C3       C     0.6875       0            0.479166     0
C4       C     0.71875      0            0.416666     0
C1       C     0.6875       0            0.520834     0
C2       C     0.71875      0            0.583334     0
C3       C     0.6875       0            0.604166     0
C4       C     0.71875      0            0.541666     0
C1       C     0.6875       0            0.645834     0
C2       C     0.71875      0            0.708334     0
C3       C     0.6875       0            0.729166     0
C4       C     0.71875      0            0.666666     0
C1       C     0.6875       0            0.770834     0
C2       C     0.71875      0            0.833334     0
C3       C     0.6875       0            0.854166     0
C4       C     0.71875      0            0.791666     0
C1       C     0.6875       0            0.895834     0
C2       C     0.71875      0            0.958334     0
C3       C     0.6875       0            0.979166     0
C4       C     0.71875      0            0.916666     0
C1       C     0.6875       0.333333     0.0208338    0
C2       C     0.71875      0.333333     0.0833337    0
C3       C     0.6875       0.333333     0.104166     0
C4       C     0.71875      0.333333     0.0416663    0
C1       C     0.6875       0.333333     0.145834     0
C2       C     0.71875      0.333333     0.208334     0
C3       C     0.6875       0.333333     0.229166     0
C4       C     0.71875      0.333333     0.166666     0
C1       C     0.6875       0.333333     0.270834     0
C2       C     0.71875      0.333333     0.333334     0
C3       C     0.6875       0.333333     0.354166     0
C4       C     0.71875      0.333333     0.291666     0
C1       C     0.6875       0.333333     0.395834     0
C2       C     0.71875      0.333333     0.458334     0
C3       C     0.6875       0.333333     0.479166     0
C4       C     0.71875      0.333333     0.416666     0
C1       C     0.6875       0.333333     0.520834     0
C2       C     0.71875      0.333333     0.583334     0
C3       C     0.6875       0.333333     0.604166     0
C4       C     0.71875      0.333333     0.541666     0
C1       C     0.6875       0.333333     0.645834     0
C2       C     0.71875      0.333333     0.708334     0
C3       C     0.6875       0.333333     0.729166     0
C4       C     0.71875      0.333333     0.666666     0
C1       C     0.6875       0.333333     0.770834     0
C2       C     0.71875      0.333333     0.833334     0
C3       C     0.6875       0.333333     0.854166     0
C4       C     0.71875      0.333333     0.791666     0
C1       C     0.6875       0.333333     0.895834     0
C2       C     0.71875      0.333333     0.958334     0
C3       C     0.6875       0.333333     0.979166     0
C4       C     0.71875      0.333333     0.916666     0
C1       C     0.6875       0.666667     0.0208338    0
C2       C     0.71875      0.666667     0.0833337    0
C3       C     0.6875       0.666667     0.104166     0
C4       C     0.71875      0.666667     0.0416663    0
C1       C     0.6875       0.666667     0.145834     0
C2       C     0.71875      0.666667     0.208334     0
C3       C     0.6875       0.666667     0.229166     0
C4       C     0.71875      0.666667     0.166666     0
C1       C     0.6875       0.666667     0.270834     0
C2       C     0.71875      0.666667     0.333334     0
C3       C     0.6875       0.666667     0.354166     0
C4       C     0.71875      0.666667     0.291666     0
C1       C     0.6875       0.666667     0.395834     0
C2       C     0.71875      0.666667     0.458334     0
C3       C     0.6875       0.666667     0.479166     0
C4       C     0.71875      0.666667     0.416666     0
C1       C     0.6875       0.666667     0.520834     0
C2       C     0.71875      0.666667     0.583334     0
C3       C     0.6875       0.666667     0.604166     0
C4       C     0.71875      0.666667     0.541666     0
C1       C     0.6875       0.666667     0.645834     0
C2       C     0.71875      0.666667     0.708334     0
C3       C     0.6875       0.666667     0.729166     0
C4       C     0.71875      0.666667     0.666666     0
C1       C     0.6875       0.666667     0.770834     0
C2       C     0.71875      0.666667     0.833334     0
C3       C     0.6875       0.666667     0.854166     0
C4       C     0.71875      0.666667     0.791666     0
C1       C     0.6875       0.666667     0.895834     0
C2       C     0.71875      0.666667     0.958334     0
C3       C     0.6875       0.666667     0.979166     0
C4       C     0.71875      0.666667     0.916666     0
C1       C     0.75         0            0.0208338    0
C2       C     0.78125      0            0.0833337    0
C3       C     0.75         0            0.104166     0
C4       C     0.78125      0            0.0416663    0
C1       C     0.75         0            0.145834     0
C2       C     0.78125      0            0.208334     0
C3       C     0.75         0            0.229166     0
C4       C     0.78125      0            0.166666     0
C1       C     0.75         0            0.270834     0
C2       C     0.78125      0            0.333334     0
C3       C     0.75         0            0.354166     0
C4       C     0.78125      0            0.291666     0
C1       C     0.75         0            0.395834     0
C2       C     0.78125      0            0.458334     0
C3       C     0.75         0            0.479166     0
C4       C     0.78125      0            0.416666     0
C1       C     0.75         0            0.520834     0
C2       C     0.78125      0            0.583334     0
C3       C     0.75         0            0.604166     0
C4       C     0.78125      0            0.541666     0
C1       C     0.75         0            0.645834     0
C2       C     0.78125      0            0.708334     0
C3       C     0.75         0            0.729166     0
C4       C     0.78125      0            0.666666     0
C1       C     0.75         0            0.770834     0
C2       C     0.78125      0            0.833334     0
C3       C     0.75         0            0.854166     0
C4       C     0.78125      0            0.791666     0
C1       C     0.75         0            0.895834     0
C2       C     0.78125      0            0.958334     0
C3       C     0.75         0            0.979166     0
C4       C     0.78125      0            0.916666     0
C1       C     0.75         0.333333     0.0208338    0
C2       C     0.78125      0.333333     0.0833337    0
C3       C     0.75         0.333333     0.104166     0
C4       C     0.78125      0.333333     0.0416663    0
C1       C     0.75         0.333333     0.145834     0
C2       C     0.78125      0.333333     0.208334     0
C3       C     0.75         0.333333     0.229166     0
C4       C     0.78125      0.333333     0.166666     0
C1       C     0.75         0.333333     0.270834     0
C2       C     0.78125      0.333333     0.333334     0
C3       C     0.75         0.333333     0.354166     0
C4       C     0.78125      0.333333     0.291666     0
C1       C     0.75         0.333333     0.395834     0
C2       C     0.78125      0.333333     0.458334     0
C3       C     0.75         0.333333     0.479166     0
C4       C     0.78125      0.333333     0.416666     0
C1       C     0.75         0.333333     0.520834     0
C2       C     0.78125      0.333333     0.583334     0
C3       C     0.75         0.333333     0.604166     0
C4       C     0.78125      0.333333     0.541666     0
C1       C     0.75         0.333333     0.645834     0
C2       C     0.78125      0.333333     0.708334     0
C3       C     0.75         0.333333     0.729166     0
C4       C     0.78125      0.333333     0.666666     0
C1       C     0.75         0.333333     0.770834     0
C2       C     0.78125      0.333333     0.833334     0
C3       C     0.75         0.333333     0.854166     0
C4       C     0.78125      0.333333     0.791666     0
C1       C     0.75         0.333333     0.895834     0
C2       C     0.78125      0.333333     0.958334     0
C3       C     0.75         0.333333     0.979166     0
C4       C     0.78125      0.333333     0.916666     0
C1       C     0.75         0.666667     0.0208338    0
C2       C     0.78125      0.666667     0.0833337    0
C3       C     0.75         0.666667     0.104166     0
C4       C     0.78125      0.666667     0.0416663    0
C1       C     0.75         0.666667     0.145834     0
C2       C     0.78125      0.666667     0.208334     0
C3       C     0.75         0.666667     0.229166     0
C4       C     0.78125      0.666667     0.166666     0
C1       C     0.75         0.666667     0.270834     0
C2       C     0.78125      0.666667     0.333334     0
C3       C     0.75         0.666667     0.354166     0
C4       C     0.78125      0.666667     0.291666     0
C1       C     0.75         0.666667     0.395834     0
C2       C     0.78125      0.666667     0.458334     0
C3       C     0.75         0.666667     0.479166     0
C4       C     0.78125      0.666667     0.416666     0
C1       C     0.75         0.666667     0.520834     0
C2       C     0.78125      0.666667     0.583334     0
C3       C     0.75         0.666667     0.604166     0
C4       C     0.78125      0.666667     0.541666     0
C1       C     0.75         0.666667     0.645834     0
C2       C     0.78125      0.666667     0.708334     0
C3       C     0.75         0.666667     0.729166     0
C4       C     0.78125      0.666667     0.666666     0
C1       C     0.75         0.666667     0.770834     0
C2       C     0.78125      0.666667     0.833334     0
C3       C     0.75         0.666667     0.854166     0
C4       C     0.78125      0.666667     0.791666     0
C1       C     0.75         0.666667     0.895834     0
C2       C     0.78125      0.666667     0.958334     0
C3       C     0.75         0.666667     0.979166     0
C4       C     0.78125      0.666667     0.916666     0
C1       C     0.8125       0            0.0208338    0
C2       C     0.84375      0            0.0833337    0
C3       C     0.8125       0            0.104166     0
C4       C     0.84375      0            0.0416663    0
C1       C     0.8125       0            0.145834     0
C2       C     0.84375      0            0.208334     0
C3       C     0.8125       0            0.229166     0
C4       C     0.84375      0            0.166666     0
C1       C     0.8125       0            0.270834     0
C2       C     0.84375      0            0.333334     0
C3       C     0.8125       0            0.354166     0
C4       C     0.84375      0            0.291666     0
C1       C     0.8125       0            0.395834     0
C2       C     0.84375      0            0.458334     0
C3       C     0.8125       0            0.479166     0
C4       C     0.84375      0            0.416666     0
C1       C     0.8125       0            0.520834     0
C2       C     0.84375      0            0.583334     0
C3       C     0.8125       0            0.604166     0
C4       C     0.84375      0            0.541666     0
C1       C     0.8125       0            0.645834     0
C2       C     0.84375      0            0.708334     0
C3       C     0.8125       0            0.729166     0
C4       C     0.84375      0            0.666666     0
C1       C     0.8125       0            0.770834     0
C2       C     0.84375      0            0.833334     0
C3       C     0.8125       0            0.854166     0
C4       C     0.84375      0            0.791666     0
C1       C     0.8125       0            0.895834     0
C2       C     0.84375      0            0.958334     0
C3       C     0.8125       0            0.979166     0
C4       C     0.84375      0            0.916666     0
C1       C     0.8125       0.333333     0.0208338    0
C2       C     0.84375      0.333333     0.0833337    0
C3       C     0.8125       0.333333     0.104166     0
C4       C     0.84375      0.333333     0.0416663    0
C1       C     0.8125       0.333333     0.145834     0
C2       C     0.84375      0.333333     0.208334     0
C3       C     0.8125       0.333333     0.229166     0
C4       C     0.84375      0.333333     0.166666     0
C1       C     0.8125       0.333333     0.270834     0
C2       C     0.84375      0.333333     0.333334     0
C3       C     0.8125       0.333333     0.354166     0
C4       C     0.84375      0.333333     0.291666     0
C1       C     0.8125       0.333333     0.395834     0
C2       C     0.84375      0.333333     0.458334     0
C3       C     0.8125       0.333333     0.479166     0
C4       C     0.84375      0.333333     0.416666     0
C1       C     0.8125       0.333333     0.520834     0
C2       C     0.84375      0.333333     0.583334     0
C3       C     0.8125       0.333333     0.604166     0
C4       C     0.84375      0.333333     0.541666     0
C1       C     0.8125       0.333333     0.645834     0
C2       C     0.84375      0.333333     0.708334     0
C3       C     0.8125       0.333333     0.729166     0
C4       C     0.84375      0.333333     0.666666     0
C1       C     0.8125       0.333333     0.770834     0
C2       C     0.84375      0.333333     0.833334     0
C3       C     0.8125       0.333333     0.854166     0
C4       C     0.84375      0.333333     0.791666     0
C1       C     0.8125       0.333333     0.895834     0
C2       C     0.84375      0.333333     0.958334     0
C3       C     0.8125       0.333333     0.979166     0
C4       C     0.84375      0.333333     0.916666     0
C1       C     0.8125       0.666667     0.0208338    0
C2       C     0.84375      0.666667     0.0833337    0
C3       C     0.8125       0.666667     0.104166     0
C4       C     0.84375      0.666667     0.0416663    0
C1       C     0.8125       0.666667     0.145834     0
C2       C     0.84375      0.666667     0.208334     0
C3       C     0.8125       0.666667     0.229166     0
C4       C     0.84375      0.666667     0.166666     0
C1       C     0.8125       0.666667     0.270834     0
C2       C     0.84375      0.666667     0.333334     0
C3       C     0.8125       0.666667     0.354166     0
C4       C     0.84375      0.666667     0.291666     0
C1       C     0.8125       0.666667     0.395834     0
C2       C     0.84375      0.666667     0.458334     0
C3       C     0.8125       0.666667     0.479166     0
C4       C     0.84375      0.666667     0.416666     0
C1       C     0.8125       0.666667     0.520834     0
C2       C     0.84375      0.666667     0.583334     0
C3       C     0.8125       0.666667     0.604166     0
C4       C     0.84375      0.666667     0.541666     0
C1       C     0.8125       0.666667     0.645834     0
C2       C     0.84375      0.666667     0.708334     0
C3       C     0.8125       0.666667     0.729166     0
C4       C     0.84375      0.666667     0.666666     0
C1       C     0.8125       0.666667     0.770834     0
C2       C     0.84375      0.666667     0.833334     0
C3       C     0.8125       0.666667     0.854166     0
C4       C     0.84375      0.666667     0.791666     0
C1       C     0.8125       0.666667     0.895834     0
C2       C     0.84375      0.666667     0.958334     0
C3       C     0.8125       0.666667     0.979166     0
C4       C     0.84375      0.666667     0.916666     0
C1       C     0.875        0            0.0208338    0
C2       C     0.90625      0            0.0833337    0
C3       C     0.875        0            0.104166     0
C4       C     0.90625      0            0.0416663    0
C1       C     0.875        0            0.145834     0
C2       C     0.90625      0            0.208334     0
C3       C     0.875        0            0.229166     0
C4       C     0.90625      0            0.166666     0
C1       C     0.875        0            0.270834     0
C2       C     0.90625      0            0.333334     0
C3       C     0.875        0            0.354166     0
C4       C     0.90625      0            0.291666     0
C1       C     0.875        0            0.395834     0
C2       C     0.90625      0            0.458334     0
C3       C     0.875        0            0.479166     0
C4       C     0.90625      0            0.416666     0
C1       C     0.875        0            0.520834     0
C2       C     0.90625      0            0.583334     0
C3       C     0.875        0            0.604166     0
C4       C     0.90625      0            0.541666     0
C1       C     0.875        0            0.645834     0
C2       C     0.90625      0            0.708334     0
C3       C     0.875        0            0.729166     0
C4       C     0.90625      0            0.666666     0
C1       C     0.875        0            0.770834     0
C2       C     0.90625      0            0.833334     0
C3       C     0.875        0            0.854166     0
C4       C     0.90625      0            0.791666     0
C1       C     0.875        0            0.895834     0
C2       C     0.90625      0            0.958334     0
C3       C     0.875        0            0.979166     0
C4       C     0.90625      0            0.916666     0
C1       C     0.875        0.333333     0.0208338    0
C2       C     0.90625      0.333333     0.0833337    0
C3       C     0.875        0.333333     0.104166     0
C4       C     0.90625      0.333333     0.0416663    0
C1       C     0.875        0.333333     0.145834     0
C2       C     0.90625      0.333333     0.208334     0
C3       C     0.875        0.333333     0.229166     0
C4       C     0.90625      0.333333     0.166666     0
C1       C     0.875        0.333333     0.270834     0
C2       C     0.90625      0.333333     0.333334     0
C3       C     0.875        0.333333     0.354166     0
C4       C     0.90625      0.333333     0.291666     0
C1       C     0.875        0.333333     0.395834     0
C2       C     0.90625      0.333333     0.458334     0
C3       C     0.875        0.333333     0.479166     0
C4       C     0.90625      0.333333     0.416666     0
C1       C     0.875        0.333333     0.520834     0
C2       C     0.90625      0.333333     0.583334     0
C3       C     0.875        0.333333     0.604166     0
C4       C     0.90625      0.333333     0.541666     0
C1       C     0.875        0.333333     0.645834     0
C2       C     0.90625      0.333333     0.708334     0
C3       C     0.875        0.333333     0.729166     0
C4       C     0.90625      0.333333     0.666666     0
C1       C     0.875        0.333333     0.770834     0
C2       C     0.90625      0.333333     0.833334     0
C3       C     0.875        0.333333     0.854166     0
C4       C     0.90625      0.333333     0.791666     0
C1       C     0.875        0.333333     0.895834     0
C2       C     0.90625      0.333333     0.958334     0
C3       C     0.875        0.333333     0.979166     0
C4       C     0.90625      0.333333     0.916666     0
C1       C     0.875        0.666667     0.0208338    0
C2       C     0.90625      0.666667     0.0833337    0
C3       C     0.875        0.666667     0.104166     0
C4       C     0.90625      0.666667     0.0416663    0
C1       C     0.875        0.666667     0.145834     0
C2       C     0.90625      0.666667     0.208334     0
C3       C     0.875        0.666667     0.229166     0
C4       C     0.90625      0.666667     0.166666     0
C1       C     0.875        0.666667     0.270834     0
C2       C     0.90625      0.666667     0.333334     0
C3       C     0.875        0.666667     0.354166     0
C4       C     0.90625      0.666667     0.291666     0
C1       C     0.875        0.666667     0.395834     0
C2       C     0.90625      0.666667     0.458334     0
C3       C     0.875        0.666667     0.479166     0
C4       C     0.90625      0.666667     0.416666     0
C1       C     0.875        0.666667     0.520834     0
C2       C     0.90625      0.666667     0.583334     0
C3       C     0.875        0.666667     0.604166     0
C4       C     0.90625      0.666667     0.541666     0
C1       C     0.875        0.666667     0.645834     0
C2       C     0.90625      0.666667     0.708334     0
C3       C     0.875        0.666667     0.729166     0
C4       C     0.90625      0.666667     0.666666     0
C1       C     0.875        0.666667     0.770834     0
C2       C     0.90625      0.666667     0.833334     0
C3       C     0.875        0.666667     0.854166     0
C4       C     0.90625      0.666667     0.791666     0
C1       C     0.875        0.666667     0.895834     0
C2       C     0.90625      0.666667     0.958334     0
C3       C     0.875        0.666667     0.979166     0
C4       C     0.90625      0.666667     0.916666     0
C1       C     0.9375       0            0.0208338    0
C2       C     0.96875      0            0.0833337    0
C3       C     0.9375       0            0.104166     0
C4       C     0.96875      0            0.0416663    0
C1       C     0.9375       0            0.145834     0
C2       C     0.96875      0            0.208334     0
C3       C     0.9375       0            0.229166     0
C4       C     0.96875      0            0.166666     0
C1       C     0.9375       0            0.270834     0
C2       C     0.96875      0            0.333334     0
C3       C     0.9375       0            0.354166     0
C4       C     0.96875      0            0.291666     0
C1       C     0.9375       0            0.395834     0
C2       C     0.96875      0            0.458334     0
C3       C     0.9375       0            0.479166     0
C4       C     0.96875      0            0.416666     0
C1       C     0.9375       0            0.520834     0
C2       C     0.96875      0            0.583334     0
C3       C     0.9375       0            0.604166     0
C4       C     0.96875      0            0.541666     0
C1       C     0.9375       0            0.645834     0
C2       C     0.96875      0            0.708334     0
C3       C     0.9375       0            0.729166     0
C4       C     0.96875      0            0.666666     0
C1       C     0.9375       0            0.770834     0
C2       C     0.96875      0            0.833334     0
C3       C     0.9375       0            0.854166     0
C4       C     0.96875      0            0.791666     0
C1       C     0.9375       0            0.895834     0
C2       C     0.96875      0            0.958334     0
C3       C     0.9375       0            0.979166     0
C4       C     0.96875      0            0.916666     0
C1       C     0.9375       0.333333     0.0208338    0
C2       C     0.96875      0.333333     0.0833337    0
C3       C     0.9375       0.333333     0.104166     0
C4       C     0.96875      0.333333     0.0416663    0
C1       C     0.9375       0.333333     0.145834     0
C2       C     0.96875      0.333333     0.208334     0
C3       C     0.9375       0.333333     0.229166     0
C4       C     0.96875      0.333333     0.166666     0
C1       C     0.9375       0.333333     0.270834     0
C2       C     0.96875      0.333333     0.333334     0
C3       C     0.9375       0.333333     0.354166     0
C4       C     0.96875      0.333333     0.291666     0
C1       C     0.9375       0.333333     0.395834     0
C2       C     0.96875      0.333333     0.458334     0
C3       C     0.9375       0.333333     0.479166     0
C4       C     0.96875      0.333333     0.416666     0
C1       C     0.9375       0.333333     0.520834     0
C2       C     0.96875      0.333333     0.583334     0
C3       C     0.9375       0.333333     0.604166     0
C4       C     0.96875      0.333333     0.541666     0
C1       C     0.9375       0.333333     0.645834     0
C2       C     0.96875      0.333333     0.708334     0
C3       C     0.9375       0.333333     0.729166     0
C4       C     0.96875      0.333333     0.666666     0
C1       C     0.9375       0.333333     0.770834     0
C2       C     0.96875      0.333333     0.833334     0
C3       C     0.9375       0.333333     0.854166     0
C4       C     0.96875      0.333333     0.791666     0
C1       C     0.9375       0.333333     0.895834     0
C2       C     0.96875      0.333333     0.958334     0
C3       C     0.9375       0.333333     0.979166     0
C4       C     0.96875      0.333333     0.916666     0
C1       C     0.9375       0.666667     0.0208338    0
C2       C     0.96875      0.666667     0.0833337    0
C3       C     0.9375       0.666667     0.104166     0
C4       C     0.96875      0.666667     0.0416663    0
C1       C     0.9375       0.666667     0.145834     0
C2       C     0.96875      0.666667     0.208334     0
C3       C     0.9375       0.666667     0.229166     0
C4       C     0.96875      0.666667     0.166666     0
C1       C     0.9375       0.666667     0.270834     0
C2       C     0.96875      0.666667     0.333334     0
C3       C     0.9375       0.666667     0.354166     0
C4       C     0.96875      0.666667     0.291666     0
C1       C     0.9375       0.666667     0.395834     0
C2       C     0.96875      0.666667     0.458334     0
C3       C     0.9375       0.666667     0.479166     0
C4       C     0.96875      0.666667     0.416666     0
C1       C     0.9375       0.666667     0.520834     0
C2       C     0.96875      0.666667     0.583334     0
C3       C     0.9375       0.666667     0.604166     0
C4       C     0.96875      0.666667     0.541666     0
C1       C     0.9375       0.666667     0.645834     0
C2       C     0.96875      0.666667     0.708334     0
C3       C     0.9375       0.666667     0.729166     0
C4       C     0.96875      0.666667     0.666666     0
C1       C     0.9375       0.666667     0.770834     0
C2       C     0.96875      0.666667     0.833334     0
C3       C     0.9375       0.666667     0.854166     0
C4       C     0.96875      0.666667     0.791666     0
C1       C     0.9375       0.666667     0.895834     0
C2       C     0.96875      0.666667     0.958334     0
C3       C     0.9375       0.666667     0.979166     0
C4       C     0.96875      0.666667     0.916666     0


