data_graphite_ortho

_audit_creation_method RASPA-1.0
_audit_creation_date 2012-1-21
_audit_author_name 'David Dubbeldam'

_cell_length_a    29.52
_cell_length_b    29.82
_cell_length_c    42.6
_cell_angle_alpha 90
_cell_angle_beta  90
_cell_angle_gamma 90
_cell_volume      37500.2

_symmetry_cell_setting          triclinic
_symmetry_space_group_name_Hall 'P 1'
_symmetry_space_group_name_H-M  'P 1'
_symmetry_Int_Tables_number     1

_symmetry_equiv_pos_as_xyz 'x,y,z'

loop_
_atom_site_label
_atom_site_type_symbol
_atom_site_fract_x
_atom_site_fract_y
_atom_site_fract_z
_atom_site_charge
C1       C     0            0.02381      0            0
C2       C     0.0416667    0.0952386    0            0
C3       C     0            0.119047     0            0
C4       C     0.0416667    0.0476186    0            0
C1       C     0            0.02381      0.333333     0
C2       C     0.0416667    0.0952386    0.333333     0
C3       C     0            0.119047     0.333333     0
C4       C     0.0416667    0.0476186    0.333333     0
C1       C     0            0.02381      0.666667     0
C2       C     0.0416667    0.0952386    0.666667     0
C3       C     0            0.119047     0.666667     0
C4       C     0.0416667    0.0476186    0.666667     0
C1       C     0            0.166667     0            0
C2       C     0.0416667    0.238096     0            0
C3       C     0            0.261904     0            0
C4       C     0.0416667    0.190476     0            0
C1       C     0            0.166667     0.333333     0
C2       C     0.0416667    0.238096     0.333333     0
C3       C     0            0.261904     0.333333     0
C4       C     0.0416667    0.190476     0.333333     0
C1       C     0            0.166667     0.666667     0
C2       C     0.0416667    0.238096     0.666667     0
C3       C     0            0.261904     0.666667     0
C4       C     0.0416667    0.190476     0.666667     0
C1       C     0            0.309524     0            0
C2       C     0.0416667    0.380953     0            0
C3       C     0            0.404761     0            0
C4       C     0.0416667    0.333333     0            0
C1       C     0            0.309524     0.333333     0
C2       C     0.0416667    0.380953     0.333333     0
C3       C     0            0.404761     0.333333     0
C4       C     0.0416667    0.333333     0.333333     0
C1       C     0            0.309524     0.666667     0
C2       C     0.0416667    0.380953     0.666667     0
C3       C     0            0.404761     0.666667     0
C4       C     0.0416667    0.333333     0.666667     0
C1       C     0            0.452381     0            0
C2       C     0.0416667    0.52381      0            0
C3       C     0            0.547619     0            0
C4       C     0.0416667    0.47619      0            0
C1       C     0            0.452381     0.333333     0
C2       C     0.0416667    0.52381      0.333333     0
C3       C     0            0.547619     0.333333     0
C4       C     0.0416667    0.47619      0.333333     0
C1       C     0            0.452381     0.666667     0
C2       C     0.0416667    0.52381      0.666667     0
C3       C     0            0.547619     0.666667     0
C4       C     0.0416667    0.47619      0.666667     0
C1       C     0            0.595239     0            0
C2       C     0.0416667    0.666667     0            0
C3       C     0            0.690476     0            0
C4       C     0.0416667    0.619047     0            0
C1       C     0            0.595239     0.333333     0
C2       C     0.0416667    0.666667     0.333333     0
C3       C     0            0.690476     0.333333     0
C4       C     0.0416667    0.619047     0.333333     0
C1       C     0            0.595239     0.666667     0
C2       C     0.0416667    0.666667     0.666667     0
C3       C     0            0.690476     0.666667     0
C4       C     0.0416667    0.619047     0.666667     0
C1       C     0            0.738096     0            0
C2       C     0.0416667    0.809524     0            0
C3       C     0            0.833333     0            0
C4       C     0.0416667    0.761904     0            0
C1       C     0            0.738096     0.333333     0
C2       C     0.0416667    0.809524     0.333333     0
C3       C     0            0.833333     0.333333     0
C4       C     0.0416667    0.761904     0.333333     0
C1       C     0            0.738096     0.666667     0
C2       C     0.0416667    0.809524     0.666667     0
C3       C     0            0.833333     0.666667     0
C4       C     0.0416667    0.761904     0.666667     0
C1       C     0            0.880953     0            0
C2       C     0.0416667    0.952381     0            0
C3       C     0            0.97619      0            0
C4       C     0.0416667    0.904761     0            0
C1       C     0            0.880953     0.333333     0
C2       C     0.0416667    0.952381     0.333333     0
C3       C     0            0.97619      0.333333     0
C4       C     0.0416667    0.904761     0.333333     0
C1       C     0            0.880953     0.666667     0
C2       C     0.0416667    0.952381     0.666667     0
C3       C     0            0.97619      0.666667     0
C4       C     0.0416667    0.904761     0.666667     0
C1       C     0.0833333    0.02381      0            0
C2       C     0.125        0.0952386    0            0
C3       C     0.0833333    0.119047     0            0
C4       C     0.125        0.0476186    0            0
C1       C     0.0833333    0.02381      0.333333     0
C2       C     0.125        0.0952386    0.333333     0
C3       C     0.0833333    0.119047     0.333333     0
C4       C     0.125        0.0476186    0.333333     0
C1       C     0.0833333    0.02381      0.666667     0
C2       C     0.125        0.0952386    0.666667     0
C3       C     0.0833333    0.119047     0.666667     0
C4       C     0.125        0.0476186    0.666667     0
C1       C     0.0833333    0.166667     0            0
C2       C     0.125        0.238096     0            0
C3       C     0.0833333    0.261904     0            0
C4       C     0.125        0.190476     0            0
C1       C     0.0833333    0.166667     0.333333     0
C2       C     0.125        0.238096     0.333333     0
C3       C     0.0833333    0.261904     0.333333     0
C4       C     0.125        0.190476     0.333333     0
C1       C     0.0833333    0.166667     0.666667     0
C2       C     0.125        0.238096     0.666667     0
C3       C     0.0833333    0.261904     0.666667     0
C4       C     0.125        0.190476     0.666667     0
C1       C     0.0833333    0.309524     0            0
C2       C     0.125        0.380953     0            0
C3       C     0.0833333    0.404761     0            0
C4       C     0.125        0.333333     0            0
C1       C     0.0833333    0.309524     0.333333     0
C2       C     0.125        0.380953     0.333333     0
C3       C     0.0833333    0.404761     0.333333     0
C4       C     0.125        0.333333     0.333333     0
C1       C     0.0833333    0.309524     0.666667     0
C2       C     0.125        0.380953     0.666667     0
C3       C     0.0833333    0.404761     0.666667     0
C4       C     0.125        0.333333     0.666667     0
C1       C     0.0833333    0.452381     0            0
C2       C     0.125        0.52381      0            0
C3       C     0.0833333    0.547619     0            0
C4       C     0.125        0.47619      0            0
C1       C     0.0833333    0.452381     0.333333     0
C2       C     0.125        0.52381      0.333333     0
C3       C     0.0833333    0.547619     0.333333     0
C4       C     0.125        0.47619      0.333333     0
C1       C     0.0833333    0.452381     0.666667     0
C2       C     0.125        0.52381      0.666667     0
C3       C     0.0833333    0.547619     0.666667     0
C4       C     0.125        0.47619      0.666667     0
C1       C     0.0833333    0.595239     0            0
C2       C     0.125        0.666667     0            0
C3       C     0.0833333    0.690476     0            0
C4       C     0.125        0.619047     0            0
C1       C     0.0833333    0.595239     0.333333     0
C2       C     0.125        0.666667     0.333333     0
C3       C     0.0833333    0.690476     0.333333     0
C4       C     0.125        0.619047     0.333333     0
C1       C     0.0833333    0.595239     0.666667     0
C2       C     0.125        0.666667     0.666667     0
C3       C     0.0833333    0.690476     0.666667     0
C4       C     0.125        0.619047     0.666667     0
C1       C     0.0833333    0.738096     0            0
C2       C     0.125        0.809524     0            0
C3       C     0.0833333    0.833333     0            0
C4       C     0.125        0.761904     0            0
C1       C     0.0833333    0.738096     0.333333     0
C2       C     0.125        0.809524     0.333333     0
C3       C     0.0833333    0.833333     0.333333     0
C4       C     0.125        0.761904     0.333333     0
C1       C     0.0833333    0.738096     0.666667     0
C2       C     0.125        0.809524     0.666667     0
C3       C     0.0833333    0.833333     0.666667     0
C4       C     0.125        0.761904     0.666667     0
C1       C     0.0833333    0.880953     0            0
C2       C     0.125        0.952381     0            0
C3       C     0.0833333    0.97619      0            0
C4       C     0.125        0.904761     0            0
C1       C     0.0833333    0.880953     0.333333     0
C2       C     0.125        0.952381     0.333333     0
C3       C     0.0833333    0.97619      0.333333     0
C4       C     0.125        0.904761     0.333333     0
C1       C     0.0833333    0.880953     0.666667     0
C2       C     0.125        0.952381     0.666667     0
C3       C     0.0833333    0.97619      0.666667     0
C4       C     0.125        0.904761     0.666667     0
C1       C     0.166667     0.02381      0            0
C2       C     0.208333     0.0952386    0            0
C3       C     0.166667     0.119047     0            0
C4       C     0.208333     0.0476186    0            0
C1       C     0.166667     0.02381      0.333333     0
C2       C     0.208333     0.0952386    0.333333     0
C3       C     0.166667     0.119047     0.333333     0
C4       C     0.208333     0.0476186    0.333333     0
C1       C     0.166667     0.02381      0.666667     0
C2       C     0.208333     0.0952386    0.666667     0
C3       C     0.166667     0.119047     0.666667     0
C4       C     0.208333     0.0476186    0.666667     0
C1       C     0.166667     0.166667     0            0
C2       C     0.208333     0.238096     0            0
C3       C     0.166667     0.261904     0            0
C4       C     0.208333     0.190476     0            0
C1       C     0.166667     0.166667     0.333333     0
C2       C     0.208333     0.238096     0.333333     0
C3       C     0.166667     0.261904     0.333333     0
C4       C     0.208333     0.190476     0.333333     0
C1       C     0.166667     0.166667     0.666667     0
C2       C     0.208333     0.238096     0.666667     0
C3       C     0.166667     0.261904     0.666667     0
C4       C     0.208333     0.190476     0.666667     0
C1       C     0.166667     0.309524     0            0
C2       C     0.208333     0.380953     0            0
C3       C     0.166667     0.404761     0            0
C4       C     0.208333     0.333333     0            0
C1       C     0.166667     0.309524     0.333333     0
C2       C     0.208333     0.380953     0.333333     0
C3       C     0.166667     0.404761     0.333333     0
C4       C     0.208333     0.333333     0.333333     0
C1       C     0.166667     0.309524     0.666667     0
C2       C     0.208333     0.380953     0.666667     0
C3       C     0.166667     0.404761     0.666667     0
C4       C     0.208333     0.333333     0.666667     0
C1       C     0.166667     0.452381     0            0
C2       C     0.208333     0.52381      0            0
C3       C     0.166667     0.547619     0            0
C4       C     0.208333     0.47619      0            0
C1       C     0.166667     0.452381     0.333333     0
C2       C     0.208333     0.52381      0.333333     0
C3       C     0.166667     0.547619     0.333333     0
C4       C     0.208333     0.47619      0.333333     0
C1       C     0.166667     0.452381     0.666667     0
C2       C     0.208333     0.52381      0.666667     0
C3       C     0.166667     0.547619     0.666667     0
C4       C     0.208333     0.47619      0.666667     0
C1       C     0.166667     0.595239     0            0
C2       C     0.208333     0.666667     0            0
C3       C     0.166667     0.690476     0            0
C4       C     0.208333     0.619047     0            0
C1       C     0.166667     0.595239     0.333333     0
C2       C     0.208333     0.666667     0.333333     0
C3       C     0.166667     0.690476     0.333333     0
C4       C     0.208333     0.619047     0.333333     0
C1       C     0.166667     0.595239     0.666667     0
C2       C     0.208333     0.666667     0.666667     0
C3       C     0.166667     0.690476     0.666667     0
C4       C     0.208333     0.619047     0.666667     0
C1       C     0.166667     0.738096     0            0
C2       C     0.208333     0.809524     0            0
C3       C     0.166667     0.833333     0            0
C4       C     0.208333     0.761904     0            0
C1       C     0.166667     0.738096     0.333333     0
C2       C     0.208333     0.809524     0.333333     0
C3       C     0.166667     0.833333     0.333333     0
C4       C     0.208333     0.761904     0.333333     0
C1       C     0.166667     0.738096     0.666667     0
C2       C     0.208333     0.809524     0.666667     0
C3       C     0.166667     0.833333     0.666667     0
C4       C     0.208333     0.761904     0.666667     0
C1       C     0.166667     0.880953     0            0
C2       C     0.208333     0.952381     0            0
C3       C     0.166667     0.97619      0            0
C4       C     0.208333     0.904761     0            0
C1       C     0.166667     0.880953     0.333333     0
C2       C     0.208333     0.952381     0.333333     0
C3       C     0.166667     0.97619      0.333333     0
C4       C     0.208333     0.904761     0.333333     0
C1       C     0.166667     0.880953     0.666667     0
C2       C     0.208333     0.952381     0.666667     0
C3       C     0.166667     0.97619      0.666667     0
C4       C     0.208333     0.904761     0.666667     0
C1       C     0.25         0.02381      0            0
C2       C     0.291667     0.0952386    0            0
C3       C     0.25         0.119047     0            0
C4       C     0.291667     0.0476186    0            0
C1       C     0.25         0.02381      0.333333     0
C2       C     0.291667     0.0952386    0.333333     0
C3       C     0.25         0.119047     0.333333     0
C4       C     0.291667     0.0476186    0.333333     0
C1       C     0.25         0.02381      0.666667     0
C2       C     0.291667     0.0952386    0.666667     0
C3       C     0.25         0.119047     0.666667     0
C4       C     0.291667     0.0476186    0.666667     0
C1       C     0.25         0.166667     0            0
C2       C     0.291667     0.238096     0            0
C3       C     0.25         0.261904     0            0
C4       C     0.291667     0.190476     0            0
C1       C     0.25         0.166667     0.333333     0
C2       C     0.291667     0.238096     0.333333     0
C3       C     0.25         0.261904     0.333333     0
C4       C     0.291667     0.190476     0.333333     0
C1       C     0.25         0.166667     0.666667     0
C2       C     0.291667     0.238096     0.666667     0
C3       C     0.25         0.261904     0.666667     0
C4       C     0.291667     0.190476     0.666667     0
C1       C     0.25         0.309524     0            0
C2       C     0.291667     0.380953     0            0
C3       C     0.25         0.404761     0            0
C4       C     0.291667     0.333333     0            0
C1       C     0.25         0.309524     0.333333     0
C2       C     0.291667     0.380953     0.333333     0
C3       C     0.25         0.404761     0.333333     0
C4       C     0.291667     0.333333     0.333333     0
C1       C     0.25         0.309524     0.666667     0
C2       C     0.291667     0.380953     0.666667     0
C3       C     0.25         0.404761     0.666667     0
C4       C     0.291667     0.333333     0.666667     0
C1       C     0.25         0.452381     0            0
C2       C     0.291667     0.52381      0            0
C3       C     0.25         0.547619     0            0
C4       C     0.291667     0.47619      0            0
C1       C     0.25         0.452381     0.333333     0
C2       C     0.291667     0.52381      0.333333     0
C3       C     0.25         0.547619     0.333333     0
C4       C     0.291667     0.47619      0.333333     0
C1       C     0.25         0.452381     0.666667     0
C2       C     0.291667     0.52381      0.666667     0
C3       C     0.25         0.547619     0.666667     0
C4       C     0.291667     0.47619      0.666667     0
C1       C     0.25         0.595239     0            0
C2       C     0.291667     0.666667     0            0
C3       C     0.25         0.690476     0            0
C4       C     0.291667     0.619047     0            0
C1       C     0.25         0.595239     0.333333     0
C2       C     0.291667     0.666667     0.333333     0
C3       C     0.25         0.690476     0.333333     0
C4       C     0.291667     0.619047     0.333333     0
C1       C     0.25         0.595239     0.666667     0
C2       C     0.291667     0.666667     0.666667     0
C3       C     0.25         0.690476     0.666667     0
C4       C     0.291667     0.619047     0.666667     0
C1       C     0.25         0.738096     0            0
C2       C     0.291667     0.809524     0            0
C3       C     0.25         0.833333     0            0
C4       C     0.291667     0.761904     0            0
C1       C     0.25         0.738096     0.333333     0
C2       C     0.291667     0.809524     0.333333     0
C3       C     0.25         0.833333     0.333333     0
C4       C     0.291667     0.761904     0.333333     0
C1       C     0.25         0.738096     0.666667     0
C2       C     0.291667     0.809524     0.666667     0
C3       C     0.25         0.833333     0.666667     0
C4       C     0.291667     0.761904     0.666667     0
C1       C     0.25         0.880953     0            0
C2       C     0.291667     0.952381     0            0
C3       C     0.25         0.97619      0            0
C4       C     0.291667     0.904761     0            0
C1       C     0.25         0.880953     0.333333     0
C2       C     0.291667     0.952381     0.333333     0
C3       C     0.25         0.97619      0.333333     0
C4       C     0.291667     0.904761     0.333333     0
C1       C     0.25         0.880953     0.666667     0
C2       C     0.291667     0.952381     0.666667     0
C3       C     0.25         0.97619      0.666667     0
C4       C     0.291667     0.904761     0.666667     0
C1       C     0.333333     0.02381      0            0
C2       C     0.375        0.0952386    0            0
C3       C     0.333333     0.119047     0            0
C4       C     0.375        0.0476186    0            0
C1       C     0.333333     0.02381      0.333333     0
C2       C     0.375        0.0952386    0.333333     0
C3       C     0.333333     0.119047     0.333333     0
C4       C     0.375        0.0476186    0.333333     0
C1       C     0.333333     0.02381      0.666667     0
C2       C     0.375        0.0952386    0.666667     0
C3       C     0.333333     0.119047     0.666667     0
C4       C     0.375        0.0476186    0.666667     0
C1       C     0.333333     0.166667     0            0
C2       C     0.375        0.238096     0            0
C3       C     0.333333     0.261904     0            0
C4       C     0.375        0.190476     0            0
C1       C     0.333333     0.166667     0.333333     0
C2       C     0.375        0.238096     0.333333     0
C3       C     0.333333     0.261904     0.333333     0
C4       C     0.375        0.190476     0.333333     0
C1       C     0.333333     0.166667     0.666667     0
C2       C     0.375        0.238096     0.666667     0
C3       C     0.333333     0.261904     0.666667     0
C4       C     0.375        0.190476     0.666667     0
C1       C     0.333333     0.309524     0            0
C2       C     0.375        0.380953     0            0
C3       C     0.333333     0.404761     0            0
C4       C     0.375        0.333333     0            0
C1       C     0.333333     0.309524     0.333333     0
C2       C     0.375        0.380953     0.333333     0
C3       C     0.333333     0.404761     0.333333     0
C4       C     0.375        0.333333     0.333333     0
C1       C     0.333333     0.309524     0.666667     0
C2       C     0.375        0.380953     0.666667     0
C3       C     0.333333     0.404761     0.666667     0
C4       C     0.375        0.333333     0.666667     0
C1       C     0.333333     0.452381     0            0
C2       C     0.375        0.52381      0            0
C3       C     0.333333     0.547619     0            0
C4       C     0.375        0.47619      0            0
C1       C     0.333333     0.452381     0.333333     0
C2       C     0.375        0.52381      0.333333     0
C3       C     0.333333     0.547619     0.333333     0
C4       C     0.375        0.47619      0.333333     0
C1       C     0.333333     0.452381     0.666667     0
C2       C     0.375        0.52381      0.666667     0
C3       C     0.333333     0.547619     0.666667     0
C4       C     0.375        0.47619      0.666667     0
C1       C     0.333333     0.595239     0            0
C2       C     0.375        0.666667     0            0
C3       C     0.333333     0.690476     0            0
C4       C     0.375        0.619047     0            0
C1       C     0.333333     0.595239     0.333333     0
C2       C     0.375        0.666667     0.333333     0
C3       C     0.333333     0.690476     0.333333     0
C4       C     0.375        0.619047     0.333333     0
C1       C     0.333333     0.595239     0.666667     0
C2       C     0.375        0.666667     0.666667     0
C3       C     0.333333     0.690476     0.666667     0
C4       C     0.375        0.619047     0.666667     0
C1       C     0.333333     0.738096     0            0
C2       C     0.375        0.809524     0            0
C3       C     0.333333     0.833333     0            0
C4       C     0.375        0.761904     0            0
C1       C     0.333333     0.738096     0.333333     0
C2       C     0.375        0.809524     0.333333     0
C3       C     0.333333     0.833333     0.333333     0
C4       C     0.375        0.761904     0.333333     0
C1       C     0.333333     0.738096     0.666667     0
C2       C     0.375        0.809524     0.666667     0
C3       C     0.333333     0.833333     0.666667     0
C4       C     0.375        0.761904     0.666667     0
C1       C     0.333333     0.880953     0            0
C2       C     0.375        0.952381     0            0
C3       C     0.333333     0.97619      0            0
C4       C     0.375        0.904761     0            0
C1       C     0.333333     0.880953     0.333333     0
C2       C     0.375        0.952381     0.333333     0
C3       C     0.333333     0.97619      0.333333     0
C4       C     0.375        0.904761     0.333333     0
C1       C     0.333333     0.880953     0.666667     0
C2       C     0.375        0.952381     0.666667     0
C3       C     0.333333     0.97619      0.666667     0
C4       C     0.375        0.904761     0.666667     0
C1       C     0.416667     0.02381      0            0
C2       C     0.458333     0.0952386    0            0
C3       C     0.416667     0.119047     0            0
C4       C     0.458333     0.0476186    0            0
C1       C     0.416667     0.02381      0.333333     0
C2       C     0.458333     0.0952386    0.333333     0
C3       C     0.416667     0.119047     0.333333     0
C4       C     0.458333     0.0476186    0.333333     0
C1       C     0.416667     0.02381      0.666667     0
C2       C     0.458333     0.0952386    0.666667     0
C3       C     0.416667     0.119047     0.666667     0
C4       C     0.458333     0.0476186    0.666667     0
C1       C     0.416667     0.166667     0            0
C2       C     0.458333     0.238096     0            0
C3       C     0.416667     0.261904     0            0
C4       C     0.458333     0.190476     0            0
C1       C     0.416667     0.166667     0.333333     0
C2       C     0.458333     0.238096     0.333333     0
C3       C     0.416667     0.261904     0.333333     0
C4       C     0.458333     0.190476     0.333333     0
C1       C     0.416667     0.166667     0.666667     0
C2       C     0.458333     0.238096     0.666667     0
C3       C     0.416667     0.261904     0.666667     0
C4       C     0.458333     0.190476     0.666667     0
C1       C     0.416667     0.309524     0            0
C2       C     0.458333     0.380953     0            0
C3       C     0.416667     0.404761     0            0
C4       C     0.458333     0.333333     0            0
C1       C     0.416667     0.309524     0.333333     0
C2       C     0.458333     0.380953     0.333333     0
C3       C     0.416667     0.404761     0.333333     0
C4       C     0.458333     0.333333     0.333333     0
C1       C     0.416667     0.309524     0.666667     0
C2       C     0.458333     0.380953     0.666667     0
C3       C     0.416667     0.404761     0.666667     0
C4       C     0.458333     0.333333     0.666667     0
C1       C     0.416667     0.452381     0            0
C2       C     0.458333     0.52381      0            0
C3       C     0.416667     0.547619     0            0
C4       C     0.458333     0.47619      0            0
C1       C     0.416667     0.452381     0.333333     0
C2       C     0.458333     0.52381      0.333333     0
C3       C     0.416667     0.547619     0.333333     0
C4       C     0.458333     0.47619      0.333333     0
C1       C     0.416667     0.452381     0.666667     0
C2       C     0.458333     0.52381      0.666667     0
C3       C     0.416667     0.547619     0.666667     0
C4       C     0.458333     0.47619      0.666667     0
C1       C     0.416667     0.595239     0            0
C2       C     0.458333     0.666667     0            0
C3       C     0.416667     0.690476     0            0
C4       C     0.458333     0.619047     0            0
C1       C     0.416667     0.595239     0.333333     0
C2       C     0.458333     0.666667     0.333333     0
C3       C     0.416667     0.690476     0.333333     0
C4       C     0.458333     0.619047     0.333333     0
C1       C     0.416667     0.595239     0.666667     0
C2       C     0.458333     0.666667     0.666667     0
C3       C     0.416667     0.690476     0.666667     0
C4       C     0.458333     0.619047     0.666667     0
C1       C     0.416667     0.738096     0            0
C2       C     0.458333     0.809524     0            0
C3       C     0.416667     0.833333     0            0
C4       C     0.458333     0.761904     0            0
C1       C     0.416667     0.738096     0.333333     0
C2       C     0.458333     0.809524     0.333333     0
C3       C     0.416667     0.833333     0.333333     0
C4       C     0.458333     0.761904     0.333333     0
C1       C     0.416667     0.738096     0.666667     0
C2       C     0.458333     0.809524     0.666667     0
C3       C     0.416667     0.833333     0.666667     0
C4       C     0.458333     0.761904     0.666667     0
C1       C     0.416667     0.880953     0            0
C2       C     0.458333     0.952381     0            0
C3       C     0.416667     0.97619      0            0
C4       C     0.458333     0.904761     0            0
C1       C     0.416667     0.880953     0.333333     0
C2       C     0.458333     0.952381     0.333333     0
C3       C     0.416667     0.97619      0.333333     0
C4       C     0.458333     0.904761     0.333333     0
C1       C     0.416667     0.880953     0.666667     0
C2       C     0.458333     0.952381     0.666667     0
C3       C     0.416667     0.97619      0.666667     0
C4       C     0.458333     0.904761     0.666667     0
C1       C     0.5          0.02381      0            0
C2       C     0.541667     0.0952386    0            0
C3       C     0.5          0.119047     0            0
C4       C     0.541667     0.0476186    0            0
C1       C     0.5          0.02381      0.333333     0
C2       C     0.541667     0.0952386    0.333333     0
C3       C     0.5          0.119047     0.333333     0
C4       C     0.541667     0.0476186    0.333333     0
C1       C     0.5          0.02381      0.666667     0
C2       C     0.541667     0.0952386    0.666667     0
C3       C     0.5          0.119047     0.666667     0
C4       C     0.541667     0.0476186    0.666667     0
C1       C     0.5          0.166667     0            0
C2       C     0.541667     0.238096     0            0
C3       C     0.5          0.261904     0            0
C4       C     0.541667     0.190476     0            0
C1       C     0.5          0.166667     0.333333     0
C2       C     0.541667     0.238096     0.333333     0
C3       C     0.5          0.261904     0.333333     0
C4       C     0.541667     0.190476     0.333333     0
C1       C     0.5          0.166667     0.666667     0
C2       C     0.541667     0.238096     0.666667     0
C3       C     0.5          0.261904     0.666667     0
C4       C     0.541667     0.190476     0.666667     0
C1       C     0.5          0.309524     0            0
C2       C     0.541667     0.380953     0            0
C3       C     0.5          0.404761     0            0
C4       C     0.541667     0.333333     0            0
C1       C     0.5          0.309524     0.333333     0
C2       C     0.541667     0.380953     0.333333     0
C3       C     0.5          0.404761     0.333333     0
C4       C     0.541667     0.333333     0.333333     0
C1       C     0.5          0.309524     0.666667     0
C2       C     0.541667     0.380953     0.666667     0
C3       C     0.5          0.404761     0.666667     0
C4       C     0.541667     0.333333     0.666667     0
C1       C     0.5          0.452381     0            0
C2       C     0.541667     0.52381      0            0
C3       C     0.5          0.547619     0            0
C4       C     0.541667     0.47619      0            0
C1       C     0.5          0.452381     0.333333     0
C2       C     0.541667     0.52381      0.333333     0
C3       C     0.5          0.547619     0.333333     0
C4       C     0.541667     0.47619      0.333333     0
C1       C     0.5          0.452381     0.666667     0
C2       C     0.541667     0.52381      0.666667     0
C3       C     0.5          0.547619     0.666667     0
C4       C     0.541667     0.47619      0.666667     0
C1       C     0.5          0.595239     0            0
C2       C     0.541667     0.666667     0            0
C3       C     0.5          0.690476     0            0
C4       C     0.541667     0.619047     0            0
C1       C     0.5          0.595239     0.333333     0
C2       C     0.541667     0.666667     0.333333     0
C3       C     0.5          0.690476     0.333333     0
C4       C     0.541667     0.619047     0.333333     0
C1       C     0.5          0.595239     0.666667     0
C2       C     0.541667     0.666667     0.666667     0
C3       C     0.5          0.690476     0.666667     0
C4       C     0.541667     0.619047     0.666667     0
C1       C     0.5          0.738096     0            0
C2       C     0.541667     0.809524     0            0
C3       C     0.5          0.833333     0            0
C4       C     0.541667     0.761904     0            0
C1       C     0.5          0.738096     0.333333     0
C2       C     0.541667     0.809524     0.333333     0
C3       C     0.5          0.833333     0.333333     0
C4       C     0.541667     0.761904     0.333333     0
C1       C     0.5          0.738096     0.666667     0
C2       C     0.541667     0.809524     0.666667     0
C3       C     0.5          0.833333     0.666667     0
C4       C     0.541667     0.761904     0.666667     0
C1       C     0.5          0.880953     0            0
C2       C     0.541667     0.952381     0            0
C3       C     0.5          0.97619      0            0
C4       C     0.541667     0.904761     0            0
C1       C     0.5          0.880953     0.333333     0
C2       C     0.541667     0.952381     0.333333     0
C3       C     0.5          0.97619      0.333333     0
C4       C     0.541667     0.904761     0.333333     0
C1       C     0.5          0.880953     0.666667     0
C2       C     0.541667     0.952381     0.666667     0
C3       C     0.5          0.97619      0.666667     0
C4       C     0.541667     0.904761     0.666667     0
C1       C     0.583333     0.02381      0            0
C2       C     0.625        0.0952386    0            0
C3       C     0.583333     0.119047     0            0
C4       C     0.625        0.0476186    0            0
C1       C     0.583333     0.02381      0.333333     0
C2       C     0.625        0.0952386    0.333333     0
C3       C     0.583333     0.119047     0.333333     0
C4       C     0.625        0.0476186    0.333333     0
C1       C     0.583333     0.02381      0.666667     0
C2       C     0.625        0.0952386    0.666667     0
C3       C     0.583333     0.119047     0.666667     0
C4       C     0.625        0.0476186    0.666667     0
C1       C     0.583333     0.166667     0            0
C2       C     0.625        0.238096     0            0
C3       C     0.583333     0.261904     0            0
C4       C     0.625        0.190476     0            0
C1       C     0.583333     0.166667     0.333333     0
C2       C     0.625        0.238096     0.333333     0
C3       C     0.583333     0.261904     0.333333     0
C4       C     0.625        0.190476     0.333333     0
C1       C     0.583333     0.166667     0.666667     0
C2       C     0.625        0.238096     0.666667     0
C3       C     0.583333     0.261904     0.666667     0
C4       C     0.625        0.190476     0.666667     0
C1       C     0.583333     0.309524     0            0
C2       C     0.625        0.380953     0            0
C3       C     0.583333     0.404761     0            0
C4       C     0.625        0.333333     0            0
C1       C     0.583333     0.309524     0.333333     0
C2       C     0.625        0.380953     0.333333     0
C3       C     0.583333     0.404761     0.333333     0
C4       C     0.625        0.333333     0.333333     0
C1       C     0.583333     0.309524     0.666667     0
C2       C     0.625        0.380953     0.666667     0
C3       C     0.583333     0.404761     0.666667     0
C4       C     0.625        0.333333     0.666667     0
C1       C     0.583333     0.452381     0            0
C2       C     0.625        0.52381      0            0
C3       C     0.583333     0.547619     0            0
C4       C     0.625        0.47619      0            0
C1       C     0.583333     0.452381     0.333333     0
C2       C     0.625        0.52381      0.333333     0
C3       C     0.583333     0.547619     0.333333     0
C4       C     0.625        0.47619      0.333333     0
C1       C     0.583333     0.452381     0.666667     0
C2       C     0.625        0.52381      0.666667     0
C3       C     0.583333     0.547619     0.666667     0
C4       C     0.625        0.47619      0.666667     0
C1       C     0.583333     0.595239     0            0
C2       C     0.625        0.666667     0            0
C3       C     0.583333     0.690476     0            0
C4       C     0.625        0.619047     0            0
C1       C     0.583333     0.595239     0.333333     0
C2       C     0.625        0.666667     0.333333     0
C3       C     0.583333     0.690476     0.333333     0
C4       C     0.625        0.619047     0.333333     0
C1       C     0.583333     0.595239     0.666667     0
C2       C     0.625        0.666667     0.666667     0
C3       C     0.583333     0.690476     0.666667     0
C4       C     0.625        0.619047     0.666667     0
C1       C     0.583333     0.738096     0            0
C2       C     0.625        0.809524     0            0
C3       C     0.583333     0.833333     0            0
C4       C     0.625        0.761904     0            0
C1       C     0.583333     0.738096     0.333333     0
C2       C     0.625        0.809524     0.333333     0
C3       C     0.583333     0.833333     0.333333     0
C4       C     0.625        0.761904     0.333333     0
C1       C     0.583333     0.738096     0.666667     0
C2       C     0.625        0.809524     0.666667     0
C3       C     0.583333     0.833333     0.666667     0
C4       C     0.625        0.761904     0.666667     0
C1       C     0.583333     0.880953     0            0
C2       C     0.625        0.952381     0            0
C3       C     0.583333     0.97619      0            0
C4       C     0.625        0.904761     0            0
C1       C     0.583333     0.880953     0.333333     0
C2       C     0.625        0.952381     0.333333     0
C3       C     0.583333     0.97619      0.333333     0
C4       C     0.625        0.904761     0.333333     0
C1       C     0.583333     0.880953     0.666667     0
C2       C     0.625        0.952381     0.666667     0
C3       C     0.583333     0.97619      0.666667     0
C4       C     0.625        0.904761     0.666667     0
C1       C     0.666667     0.02381      0            0
C2       C     0.708333     0.0952386    0            0
C3       C     0.666667     0.119047     0            0
C4       C     0.708333     0.0476186    0            0
C1       C     0.666667     0.02381      0.333333     0
C2       C     0.708333     0.0952386    0.333333     0
C3       C     0.666667     0.119047     0.333333     0
C4       C     0.708333     0.0476186    0.333333     0
C1       C     0.666667     0.02381      0.666667     0
C2       C     0.708333     0.0952386    0.666667     0
C3       C     0.666667     0.119047     0.666667     0
C4       C     0.708333     0.0476186    0.666667     0
C1       C     0.666667     0.166667     0            0
C2       C     0.708333     0.238096     0            0
C3       C     0.666667     0.261904     0            0
C4       C     0.708333     0.190476     0            0
C1       C     0.666667     0.166667     0.333333     0
C2       C     0.708333     0.238096     0.333333     0
C3       C     0.666667     0.261904     0.333333     0
C4       C     0.708333     0.190476     0.333333     0
C1       C     0.666667     0.166667     0.666667     0
C2       C     0.708333     0.238096     0.666667     0
C3       C     0.666667     0.261904     0.666667     0
C4       C     0.708333     0.190476     0.666667     0
C1       C     0.666667     0.309524     0            0
C2       C     0.708333     0.380953     0            0
C3       C     0.666667     0.404761     0            0
C4       C     0.708333     0.333333     0            0
C1       C     0.666667     0.309524     0.333333     0
C2       C     0.708333     0.380953     0.333333     0
C3       C     0.666667     0.404761     0.333333     0
C4       C     0.708333     0.333333     0.333333     0
C1       C     0.666667     0.309524     0.666667     0
C2       C     0.708333     0.380953     0.666667     0
C3       C     0.666667     0.404761     0.666667     0
C4       C     0.708333     0.333333     0.666667     0
C1       C     0.666667     0.452381     0            0
C2       C     0.708333     0.52381      0            0
C3       C     0.666667     0.547619     0            0
C4       C     0.708333     0.47619      0            0
C1       C     0.666667     0.452381     0.333333     0
C2       C     0.708333     0.52381      0.333333     0
C3       C     0.666667     0.547619     0.333333     0
C4       C     0.708333     0.47619      0.333333     0
C1       C     0.666667     0.452381     0.666667     0
C2       C     0.708333     0.52381      0.666667     0
C3       C     0.666667     0.547619     0.666667     0
C4       C     0.708333     0.47619      0.666667     0
C1       C     0.666667     0.595239     0            0
C2       C     0.708333     0.666667     0            0
C3       C     0.666667     0.690476     0            0
C4       C     0.708333     0.619047     0            0
C1       C     0.666667     0.595239     0.333333     0
C2       C     0.708333     0.666667     0.333333     0
C3       C     0.666667     0.690476     0.333333     0
C4       C     0.708333     0.619047     0.333333     0
C1       C     0.666667     0.595239     0.666667     0
C2       C     0.708333     0.666667     0.666667     0
C3       C     0.666667     0.690476     0.666667     0
C4       C     0.708333     0.619047     0.666667     0
C1       C     0.666667     0.738096     0            0
C2       C     0.708333     0.809524     0            0
C3       C     0.666667     0.833333     0            0
C4       C     0.708333     0.761904     0            0
C1       C     0.666667     0.738096     0.333333     0
C2       C     0.708333     0.809524     0.333333     0
C3       C     0.666667     0.833333     0.333333     0
C4       C     0.708333     0.761904     0.333333     0
C1       C     0.666667     0.738096     0.666667     0
C2       C     0.708333     0.809524     0.666667     0
C3       C     0.666667     0.833333     0.666667     0
C4       C     0.708333     0.761904     0.666667     0
C1       C     0.666667     0.880953     0            0
C2       C     0.708333     0.952381     0            0
C3       C     0.666667     0.97619      0            0
C4       C     0.708333     0.904761     0            0
C1       C     0.666667     0.880953     0.333333     0
C2       C     0.708333     0.952381     0.333333     0
C3       C     0.666667     0.97619      0.333333     0
C4       C     0.708333     0.904761     0.333333     0
C1       C     0.666667     0.880953     0.666667     0
C2       C     0.708333     0.952381     0.666667     0
C3       C     0.666667     0.97619      0.666667     0
C4       C     0.708333     0.904761     0.666667     0
C1       C     0.75         0.02381      0            0
C2       C     0.791667     0.0952386    0            0
C3       C     0.75         0.119047     0            0
C4       C     0.791667     0.0476186    0            0
C1       C     0.75         0.02381      0.333333     0
C2       C     0.791667     0.0952386    0.333333     0
C3       C     0.75         0.119047     0.333333     0
C4       C     0.791667     0.0476186    0.333333     0
C1       C     0.75         0.02381      0.666667     0
C2       C     0.791667     0.0952386    0.666667     0
C3       C     0.75         0.119047     0.666667     0
C4       C     0.791667     0.0476186    0.666667     0
C1       C     0.75         0.166667     0            0
C2       C     0.791667     0.238096     0            0
C3       C     0.75         0.261904     0            0
C4       C     0.791667     0.190476     0            0
C1       C     0.75         0.166667     0.333333     0
C2       C     0.791667     0.238096     0.333333     0
C3       C     0.75         0.261904     0.333333     0
C4       C     0.791667     0.190476     0.333333     0
C1       C     0.75         0.166667     0.666667     0
C2       C     0.791667     0.238096     0.666667     0
C3       C     0.75         0.261904     0.666667     0
C4       C     0.791667     0.190476     0.666667     0
C1       C     0.75         0.309524     0            0
C2       C     0.791667     0.380953     0            0
C3       C     0.75         0.404761     0            0
C4       C     0.791667     0.333333     0            0
C1       C     0.75         0.309524     0.333333     0
C2       C     0.791667     0.380953     0.333333     0
C3       C     0.75         0.404761     0.333333     0
C4       C     0.791667     0.333333     0.333333     0
C1       C     0.75         0.309524     0.666667     0
C2       C     0.791667     0.380953     0.666667     0
C3       C     0.75         0.404761     0.666667     0
C4       C     0.791667     0.333333     0.666667     0
C1       C     0.75         0.452381     0            0
C2       C     0.791667     0.52381      0            0
C3       C     0.75         0.547619     0            0
C4       C     0.791667     0.47619      0            0
C1       C     0.75         0.452381     0.333333     0
C2       C     0.791667     0.52381      0.333333     0
C3       C     0.75         0.547619     0.333333     0
C4       C     0.791667     0.47619      0.333333     0
C1       C     0.75         0.452381     0.666667     0
C2       C     0.791667     0.52381      0.666667     0
C3       C     0.75         0.547619     0.666667     0
C4       C     0.791667     0.47619      0.666667     0
C1       C     0.75         0.595239     0            0
C2       C     0.791667     0.666667     0            0
C3       C     0.75         0.690476     0            0
C4       C     0.791667     0.619047     0            0
C1       C     0.75         0.595239     0.333333     0
C2       C     0.791667     0.666667     0.333333     0
C3       C     0.75         0.690476     0.333333     0
C4       C     0.791667     0.619047     0.333333     0
C1       C     0.75         0.595239     0.666667     0
C2       C     0.791667     0.666667     0.666667     0
C3       C     0.75         0.690476     0.666667     0
C4       C     0.791667     0.619047     0.666667     0
C1       C     0.75         0.738096     0            0
C2       C     0.791667     0.809524     0            0
C3       C     0.75         0.833333     0            0
C4       C     0.791667     0.761904     0            0
C1       C     0.75         0.738096     0.333333     0
C2       C     0.791667     0.809524     0.333333     0
C3       C     0.75         0.833333     0.333333     0
C4       C     0.791667     0.761904     0.333333     0
C1       C     0.75         0.738096     0.666667     0
C2       C     0.791667     0.809524     0.666667     0
C3       C     0.75         0.833333     0.666667     0
C4       C     0.791667     0.761904     0.666667     0
C1       C     0.75         0.880953     0            0
C2       C     0.791667     0.952381     0            0
C3       C     0.75         0.97619      0            0
C4       C     0.791667     0.904761     0            0
C1       C     0.75         0.880953     0.333333     0
C2       C     0.791667     0.952381     0.333333     0
C3       C     0.75         0.97619      0.333333     0
C4       C     0.791667     0.904761     0.333333     0
C1       C     0.75         0.880953     0.666667     0
C2       C     0.791667     0.952381     0.666667     0
C3       C     0.75         0.97619      0.666667     0
C4       C     0.791667     0.904761     0.666667     0
C1       C     0.833333     0.02381      0            0
C2       C     0.875        0.0952386    0            0
C3       C     0.833333     0.119047     0            0
C4       C     0.875        0.0476186    0            0
C1       C     0.833333     0.02381      0.333333     0
C2       C     0.875        0.0952386    0.333333     0
C3       C     0.833333     0.119047     0.333333     0
C4       C     0.875        0.0476186    0.333333     0
C1       C     0.833333     0.02381      0.666667     0
C2       C     0.875        0.0952386    0.666667     0
C3       C     0.833333     0.119047     0.666667     0
C4       C     0.875        0.0476186    0.666667     0
C1       C     0.833333     0.166667     0            0
C2       C     0.875        0.238096     0            0
C3       C     0.833333     0.261904     0            0
C4       C     0.875        0.190476     0            0
C1       C     0.833333     0.166667     0.333333     0
C2       C     0.875        0.238096     0.333333     0
C3       C     0.833333     0.261904     0.333333     0
C4       C     0.875        0.190476     0.333333     0
C1       C     0.833333     0.166667     0.666667     0
C2       C     0.875        0.238096     0.666667     0
C3       C     0.833333     0.261904     0.666667     0
C4       C     0.875        0.190476     0.666667     0
C1       C     0.833333     0.309524     0            0
C2       C     0.875        0.380953     0            0
C3       C     0.833333     0.404761     0            0
C4       C     0.875        0.333333     0            0
C1       C     0.833333     0.309524     0.333333     0
C2       C     0.875        0.380953     0.333333     0
C3       C     0.833333     0.404761     0.333333     0
C4       C     0.875        0.333333     0.333333     0
C1       C     0.833333     0.309524     0.666667     0
C2       C     0.875        0.380953     0.666667     0
C3       C     0.833333     0.404761     0.666667     0
C4       C     0.875        0.333333     0.666667     0
C1       C     0.833333     0.452381     0            0
C2       C     0.875        0.52381      0            0
C3       C     0.833333     0.547619     0            0
C4       C     0.875        0.47619      0            0
C1       C     0.833333     0.452381     0.333333     0
C2       C     0.875        0.52381      0.333333     0
C3       C     0.833333     0.547619     0.333333     0
C4       C     0.875        0.47619      0.333333     0
C1       C     0.833333     0.452381     0.666667     0
C2       C     0.875        0.52381      0.666667     0
C3       C     0.833333     0.547619     0.666667     0
C4       C     0.875        0.47619      0.666667     0
C1       C     0.833333     0.595239     0            0
C2       C     0.875        0.666667     0            0
C3       C     0.833333     0.690476     0            0
C4       C     0.875        0.619047     0            0
C1       C     0.833333     0.595239     0.333333     0
C2       C     0.875        0.666667     0.333333     0
C3       C     0.833333     0.690476     0.333333     0
C4       C     0.875        0.619047     0.333333     0
C1       C     0.833333     0.595239     0.666667     0
C2       C     0.875        0.666667     0.666667     0
C3       C     0.833333     0.690476     0.666667     0
C4       C     0.875        0.619047     0.666667     0
C1       C     0.833333     0.738096     0            0
C2       C     0.875        0.809524     0            0
C3       C     0.833333     0.833333     0            0
C4       C     0.875        0.761904     0            0
C1       C     0.833333     0.738096     0.333333     0
C2       C     0.875        0.809524     0.333333     0
C3       C     0.833333     0.833333     0.333333     0
C4       C     0.875        0.761904     0.333333     0
C1       C     0.833333     0.738096     0.666667     0
C2       C     0.875        0.809524     0.666667     0
C3       C     0.833333     0.833333     0.666667     0
C4       C     0.875        0.761904     0.666667     0
C1       C     0.833333     0.880953     0            0
C2       C     0.875        0.952381     0            0
C3       C     0.833333     0.97619      0            0
C4       C     0.875        0.904761     0            0
C1       C     0.833333     0.880953     0.333333     0
C2       C     0.875        0.952381     0.333333     0
C3       C     0.833333     0.97619      0.333333     0
C4       C     0.875        0.904761     0.333333     0
C1       C     0.833333     0.880953     0.666667     0
C2       C     0.875        0.952381     0.666667     0
C3       C     0.833333     0.97619      0.666667     0
C4       C     0.875        0.904761     0.666667     0
C1       C     0.916667     0.02381      0            0
C2       C     0.958333     0.0952386    0            0
C3       C     0.916667     0.119047     0            0
C4       C     0.958333     0.0476186    0            0
C1       C     0.916667     0.02381      0.333333     0
C2       C     0.958333     0.0952386    0.333333     0
C3       C     0.916667     0.119047     0.333333     0
C4       C     0.958333     0.0476186    0.333333     0
C1       C     0.916667     0.02381      0.666667     0
C2       C     0.958333     0.0952386    0.666667     0
C3       C     0.916667     0.119047     0.666667     0
C4       C     0.958333     0.0476186    0.666667     0
C1       C     0.916667     0.166667     0            0
C2       C     0.958333     0.238096     0            0
C3       C     0.916667     0.261904     0            0
C4       C     0.958333     0.190476     0            0
C1       C     0.916667     0.166667     0.333333     0
C2       C     0.958333     0.238096     0.333333     0
C3       C     0.916667     0.261904     0.333333     0
C4       C     0.958333     0.190476     0.333333     0
C1       C     0.916667     0.166667     0.666667     0
C2       C     0.958333     0.238096     0.666667     0
C3       C     0.916667     0.261904     0.666667     0
C4       C     0.958333     0.190476     0.666667     0
C1       C     0.916667     0.309524     0            0
C2       C     0.958333     0.380953     0            0
C3       C     0.916667     0.404761     0            0
C4       C     0.958333     0.333333     0            0
C1       C     0.916667     0.309524     0.333333     0
C2       C     0.958333     0.380953     0.333333     0
C3       C     0.916667     0.404761     0.333333     0
C4       C     0.958333     0.333333     0.333333     0
C1       C     0.916667     0.309524     0.666667     0
C2       C     0.958333     0.380953     0.666667     0
C3       C     0.916667     0.404761     0.666667     0
C4       C     0.958333     0.333333     0.666667     0
C1       C     0.916667     0.452381     0            0
C2       C     0.958333     0.52381      0            0
C3       C     0.916667     0.547619     0            0
C4       C     0.958333     0.47619      0            0
C1       C     0.916667     0.452381     0.333333     0
C2       C     0.958333     0.52381      0.333333     0
C3       C     0.916667     0.547619     0.333333     0
C4       C     0.958333     0.47619      0.333333     0
C1       C     0.916667     0.452381     0.666667     0
C2       C     0.958333     0.52381      0.666667     0
C3       C     0.916667     0.547619     0.666667     0
C4       C     0.958333     0.47619      0.666667     0
C1       C     0.916667     0.595239     0            0
C2       C     0.958333     0.666667     0            0
C3       C     0.916667     0.690476     0            0
C4       C     0.958333     0.619047     0            0
C1       C     0.916667     0.595239     0.333333     0
C2       C     0.958333     0.666667     0.333333     0
C3       C     0.916667     0.690476     0.333333     0
C4       C     0.958333     0.619047     0.333333     0
C1       C     0.916667     0.595239     0.666667     0
C2       C     0.958333     0.666667     0.666667     0
C3       C     0.916667     0.690476     0.666667     0
C4       C     0.958333     0.619047     0.666667     0
C1       C     0.916667     0.738096     0            0
C2       C     0.958333     0.809524     0            0
C3       C     0.916667     0.833333     0            0
C4       C     0.958333     0.761904     0            0
C1       C     0.916667     0.738096     0.333333     0
C2       C     0.958333     0.809524     0.333333     0
C3       C     0.916667     0.833333     0.333333     0
C4       C     0.958333     0.761904     0.333333     0
C1       C     0.916667     0.738096     0.666667     0
C2       C     0.958333     0.809524     0.666667     0
C3       C     0.916667     0.833333     0.666667     0
C4       C     0.958333     0.761904     0.666667     0
C1       C     0.916667     0.880953     0            0
C2       C     0.958333     0.952381     0            0
C3       C     0.916667     0.97619      0            0
C4       C     0.958333     0.904761     0            0
C1       C     0.916667     0.880953     0.333333     0
C2       C     0.958333     0.952381     0.333333     0
C3       C     0.916667     0.97619      0.333333     0
C4       C     0.958333     0.904761     0.333333     0
C1       C     0.916667     0.880953     0.666667     0
C2       C     0.958333     0.952381     0.666667     0
C3       C     0.916667     0.97619      0.666667     0
C4       C     0.958333     0.904761     0.666667     0


