data_graphite_ortho

_audit_creation_method RASPA-1.0
_audit_creation_date 2012-2-3
_audit_author_name 'David Dubbeldam'

_cell_length_a    39.36
_cell_length_b    59.64
_cell_length_c    59.64
_cell_angle_alpha 90
_cell_angle_beta  90
_cell_angle_gamma 90
_cell_volume      140001

_symmetry_cell_setting          triclinic
_symmetry_space_group_name_Hall 'P 1'
_symmetry_space_group_name_H-M  'P 1'
_symmetry_Int_Tables_number     1

_symmetry_equiv_pos_as_xyz 'x,y,z'

loop_
_atom_site_label
_atom_site_type_symbol
_atom_site_fract_x
_atom_site_fract_y
_atom_site_fract_z
_atom_site_charge
C1       C      0            0.011905     0            0
C2       C      0.03125      0.0476193    0            0
C3       C      0            0.0595236    0            0
C4       C      0.03125      0.0238093    0            0
C1       C      0            0.011905     0.333333     0
C2       C      0.03125      0.0476193    0.333333     0
C3       C      0            0.0595236    0.333333     0
C4       C      0.03125      0.0238093    0.333333     0
C1       C      0            0.011905     0.666667     0
C2       C      0.03125      0.0476193    0.666667     0
C3       C      0            0.0595236    0.666667     0
C4       C      0.03125      0.0238093    0.666667     0
C1       C      0            0.0833336    0            0
C2       C      0.03125      0.119048     0            0
C3       C      0            0.130952     0            0
C4       C      0.03125      0.0952379    0            0
C1       C      0            0.0833336    0.333333     0
C2       C      0.03125      0.119048     0.333333     0
C3       C      0            0.130952     0.333333     0
C4       C      0.03125      0.0952379    0.333333     0
C1       C      0            0.0833336    0.666667     0
C2       C      0.03125      0.119048     0.666667     0
C3       C      0            0.130952     0.666667     0
C4       C      0.03125      0.0952379    0.666667     0
C1       C      0            0.154762     0            0
C2       C      0.03125      0.190476     0            0
C3       C      0            0.202381     0            0
C4       C      0.03125      0.166666     0            0
C1       C      0            0.154762     0.333333     0
C2       C      0.03125      0.190476     0.333333     0
C3       C      0            0.202381     0.333333     0
C4       C      0.03125      0.166666     0.333333     0
C1       C      0            0.154762     0.666667     0
C2       C      0.03125      0.190476     0.666667     0
C3       C      0            0.202381     0.666667     0
C4       C      0.03125      0.166666     0.666667     0
C1       C      0            0.226191     0            0
C2       C      0.03125      0.261905     0            0
C3       C      0            0.273809     0            0
C4       C      0.03125      0.238095     0            0
C1       C      0            0.226191     0.333333     0
C2       C      0.03125      0.261905     0.333333     0
C3       C      0            0.273809     0.333333     0
C4       C      0.03125      0.238095     0.333333     0
C1       C      0            0.226191     0.666667     0
C2       C      0.03125      0.261905     0.666667     0
C3       C      0            0.273809     0.666667     0
C4       C      0.03125      0.238095     0.666667     0
C1       C      0            0.297619     0            0
C2       C      0.03125      0.333334     0            0
C3       C      0            0.345238     0            0
C4       C      0.03125      0.309524     0            0
C1       C      0            0.297619     0.333333     0
C2       C      0.03125      0.333334     0.333333     0
C3       C      0            0.345238     0.333333     0
C4       C      0.03125      0.309524     0.333333     0
C1       C      0            0.297619     0.666667     0
C2       C      0.03125      0.333334     0.666667     0
C3       C      0            0.345238     0.666667     0
C4       C      0.03125      0.309524     0.666667     0
C1       C      0            0.369048     0            0
C2       C      0.03125      0.404762     0            0
C3       C      0            0.416666     0            0
C4       C      0.03125      0.380952     0            0
C1       C      0            0.369048     0.333333     0
C2       C      0.03125      0.404762     0.333333     0
C3       C      0            0.416666     0.333333     0
C4       C      0.03125      0.380952     0.333333     0
C1       C      0            0.369048     0.666667     0
C2       C      0.03125      0.404762     0.666667     0
C3       C      0            0.416666     0.666667     0
C4       C      0.03125      0.380952     0.666667     0
C1       C      0            0.440476     0            0
C2       C      0.03125      0.476191     0            0
C3       C      0            0.488095     0            0
C4       C      0.03125      0.452381     0            0
C1       C      0            0.440476     0.333333     0
C2       C      0.03125      0.476191     0.333333     0
C3       C      0            0.488095     0.333333     0
C4       C      0.03125      0.452381     0.333333     0
C1       C      0            0.440476     0.666667     0
C2       C      0.03125      0.476191     0.666667     0
C3       C      0            0.488095     0.666667     0
C4       C      0.03125      0.452381     0.666667     0
C1       C      0            0.511905     0            0
C2       C      0.03125      0.547619     0            0
C3       C      0            0.559524     0            0
C4       C      0.03125      0.523809     0            0
C1       C      0            0.511905     0.333333     0
C2       C      0.03125      0.547619     0.333333     0
C3       C      0            0.559524     0.333333     0
C4       C      0.03125      0.523809     0.333333     0
C1       C      0            0.511905     0.666667     0
C2       C      0.03125      0.547619     0.666667     0
C3       C      0            0.559524     0.666667     0
C4       C      0.03125      0.523809     0.666667     0
C1       C      0            0.583334     0            0
C2       C      0.03125      0.619048     0            0
C3       C      0            0.630952     0            0
C4       C      0.03125      0.595238     0            0
C1       C      0            0.583334     0.333333     0
C2       C      0.03125      0.619048     0.333333     0
C3       C      0            0.630952     0.333333     0
C4       C      0.03125      0.595238     0.333333     0
C1       C      0            0.583334     0.666667     0
C2       C      0.03125      0.619048     0.666667     0
C3       C      0            0.630952     0.666667     0
C4       C      0.03125      0.595238     0.666667     0
C1       C      0            0.654762     0            0
C2       C      0.03125      0.690476     0            0
C3       C      0            0.702381     0            0
C4       C      0.03125      0.666666     0            0
C1       C      0            0.654762     0.333333     0
C2       C      0.03125      0.690476     0.333333     0
C3       C      0            0.702381     0.333333     0
C4       C      0.03125      0.666666     0.333333     0
C1       C      0            0.654762     0.666667     0
C2       C      0.03125      0.690476     0.666667     0
C3       C      0            0.702381     0.666667     0
C4       C      0.03125      0.666666     0.666667     0
C1       C      0            0.726191     0            0
C2       C      0.03125      0.761905     0            0
C3       C      0            0.773809     0            0
C4       C      0.03125      0.738095     0            0
C1       C      0            0.726191     0.333333     0
C2       C      0.03125      0.761905     0.333333     0
C3       C      0            0.773809     0.333333     0
C4       C      0.03125      0.738095     0.333333     0
C1       C      0            0.726191     0.666667     0
C2       C      0.03125      0.761905     0.666667     0
C3       C      0            0.773809     0.666667     0
C4       C      0.03125      0.738095     0.666667     0
C1       C      0            0.797619     0            0
C2       C      0.03125      0.833334     0            0
C3       C      0            0.845238     0            0
C4       C      0.03125      0.809524     0            0
C1       C      0            0.797619     0.333333     0
C2       C      0.03125      0.833334     0.333333     0
C3       C      0            0.845238     0.333333     0
C4       C      0.03125      0.809524     0.333333     0
C1       C      0            0.797619     0.666667     0
C2       C      0.03125      0.833334     0.666667     0
C3       C      0            0.845238     0.666667     0
C4       C      0.03125      0.809524     0.666667     0
C1       C      0            0.869048     0            0
C2       C      0.03125      0.904762     0            0
C3       C      0            0.916666     0            0
C4       C      0.03125      0.880952     0            0
C1       C      0            0.869048     0.333333     0
C2       C      0.03125      0.904762     0.333333     0
C3       C      0            0.916666     0.333333     0
C4       C      0.03125      0.880952     0.333333     0
C1       C      0            0.869048     0.666667     0
C2       C      0.03125      0.904762     0.666667     0
C3       C      0            0.916666     0.666667     0
C4       C      0.03125      0.880952     0.666667     0
C1       C      0            0.940476     0            0
C2       C      0.03125      0.976191     0            0
C3       C      0            0.988095     0            0
C4       C      0.03125      0.952381     0            0
C1       C      0            0.940476     0.333333     0
C2       C      0.03125      0.976191     0.333333     0
C3       C      0            0.988095     0.333333     0
C4       C      0.03125      0.952381     0.333333     0
C1       C      0            0.940476     0.666667     0
C2       C      0.03125      0.976191     0.666667     0
C3       C      0            0.988095     0.666667     0
C4       C      0.03125      0.952381     0.666667     0
C1       C      0.0625       0.011905     0            0
C2       C      0.09375      0.0476193    0            0
C3       C      0.0625       0.0595236    0            0
C4       C      0.09375      0.0238093    0            0
C1       C      0.0625       0.011905     0.333333     0
C2       C      0.09375      0.0476193    0.333333     0
C3       C      0.0625       0.0595236    0.333333     0
C4       C      0.09375      0.0238093    0.333333     0
C1       C      0.0625       0.011905     0.666667     0
C2       C      0.09375      0.0476193    0.666667     0
C3       C      0.0625       0.0595236    0.666667     0
C4       C      0.09375      0.0238093    0.666667     0
C1       C      0.0625       0.0833336    0            0
C2       C      0.09375      0.119048     0            0
C3       C      0.0625       0.130952     0            0
C4       C      0.09375      0.0952379    0            0
C1       C      0.0625       0.0833336    0.333333     0
C2       C      0.09375      0.119048     0.333333     0
C3       C      0.0625       0.130952     0.333333     0
C4       C      0.09375      0.0952379    0.333333     0
C1       C      0.0625       0.0833336    0.666667     0
C2       C      0.09375      0.119048     0.666667     0
C3       C      0.0625       0.130952     0.666667     0
C4       C      0.09375      0.0952379    0.666667     0
C1       C      0.0625       0.154762     0            0
C2       C      0.09375      0.190476     0            0
C3       C      0.0625       0.202381     0            0
C4       C      0.09375      0.166666     0            0
C1       C      0.0625       0.154762     0.333333     0
C2       C      0.09375      0.190476     0.333333     0
C3       C      0.0625       0.202381     0.333333     0
C4       C      0.09375      0.166666     0.333333     0
C1       C      0.0625       0.154762     0.666667     0
C2       C      0.09375      0.190476     0.666667     0
C3       C      0.0625       0.202381     0.666667     0
C4       C      0.09375      0.166666     0.666667     0
C1       C      0.0625       0.226191     0            0
C2       C      0.09375      0.261905     0            0
C3       C      0.0625       0.273809     0            0
C4       C      0.09375      0.238095     0            0
C1       C      0.0625       0.226191     0.333333     0
C2       C      0.09375      0.261905     0.333333     0
C3       C      0.0625       0.273809     0.333333     0
C4       C      0.09375      0.238095     0.333333     0
C1       C      0.0625       0.226191     0.666667     0
C2       C      0.09375      0.261905     0.666667     0
C3       C      0.0625       0.273809     0.666667     0
C4       C      0.09375      0.238095     0.666667     0
C1       C      0.0625       0.297619     0            0
C2       C      0.09375      0.333334     0            0
C3       C      0.0625       0.345238     0            0
C4       C      0.09375      0.309524     0            0
C1       C      0.0625       0.297619     0.333333     0
C2       C      0.09375      0.333334     0.333333     0
C3       C      0.0625       0.345238     0.333333     0
C4       C      0.09375      0.309524     0.333333     0
C1       C      0.0625       0.297619     0.666667     0
C2       C      0.09375      0.333334     0.666667     0
C3       C      0.0625       0.345238     0.666667     0
C4       C      0.09375      0.309524     0.666667     0
C1       C      0.0625       0.369048     0            0
C2       C      0.09375      0.404762     0            0
C3       C      0.0625       0.416666     0            0
C4       C      0.09375      0.380952     0            0
C1       C      0.0625       0.369048     0.333333     0
C2       C      0.09375      0.404762     0.333333     0
C3       C      0.0625       0.416666     0.333333     0
C4       C      0.09375      0.380952     0.333333     0
C1       C      0.0625       0.369048     0.666667     0
C2       C      0.09375      0.404762     0.666667     0
C3       C      0.0625       0.416666     0.666667     0
C4       C      0.09375      0.380952     0.666667     0
C1       C      0.0625       0.440476     0            0
C2       C      0.09375      0.476191     0            0
C3       C      0.0625       0.488095     0            0
C4       C      0.09375      0.452381     0            0
C1       C      0.0625       0.440476     0.333333     0
C2       C      0.09375      0.476191     0.333333     0
C3       C      0.0625       0.488095     0.333333     0
C4       C      0.09375      0.452381     0.333333     0
C1       C      0.0625       0.440476     0.666667     0
C2       C      0.09375      0.476191     0.666667     0
C3       C      0.0625       0.488095     0.666667     0
C4       C      0.09375      0.452381     0.666667     0
C1       C      0.0625       0.511905     0            0
C2       C      0.09375      0.547619     0            0
C3       C      0.0625       0.559524     0            0
C4       C      0.09375      0.523809     0            0
C1       C      0.0625       0.511905     0.333333     0
C2       C      0.09375      0.547619     0.333333     0
C3       C      0.0625       0.559524     0.333333     0
C4       C      0.09375      0.523809     0.333333     0
C1       C      0.0625       0.511905     0.666667     0
C2       C      0.09375      0.547619     0.666667     0
C3       C      0.0625       0.559524     0.666667     0
C4       C      0.09375      0.523809     0.666667     0
C1       C      0.0625       0.583334     0            0
C2       C      0.09375      0.619048     0            0
C3       C      0.0625       0.630952     0            0
C4       C      0.09375      0.595238     0            0
C1       C      0.0625       0.583334     0.333333     0
C2       C      0.09375      0.619048     0.333333     0
C3       C      0.0625       0.630952     0.333333     0
C4       C      0.09375      0.595238     0.333333     0
C1       C      0.0625       0.583334     0.666667     0
C2       C      0.09375      0.619048     0.666667     0
C3       C      0.0625       0.630952     0.666667     0
C4       C      0.09375      0.595238     0.666667     0
C1       C      0.0625       0.654762     0            0
C2       C      0.09375      0.690476     0            0
C3       C      0.0625       0.702381     0            0
C4       C      0.09375      0.666666     0            0
C1       C      0.0625       0.654762     0.333333     0
C2       C      0.09375      0.690476     0.333333     0
C3       C      0.0625       0.702381     0.333333     0
C4       C      0.09375      0.666666     0.333333     0
C1       C      0.0625       0.654762     0.666667     0
C2       C      0.09375      0.690476     0.666667     0
C3       C      0.0625       0.702381     0.666667     0
C4       C      0.09375      0.666666     0.666667     0
C1       C      0.0625       0.726191     0            0
C2       C      0.09375      0.761905     0            0
C3       C      0.0625       0.773809     0            0
C4       C      0.09375      0.738095     0            0
C1       C      0.0625       0.726191     0.333333     0
C2       C      0.09375      0.761905     0.333333     0
C3       C      0.0625       0.773809     0.333333     0
C4       C      0.09375      0.738095     0.333333     0
C1       C      0.0625       0.726191     0.666667     0
C2       C      0.09375      0.761905     0.666667     0
C3       C      0.0625       0.773809     0.666667     0
C4       C      0.09375      0.738095     0.666667     0
C1       C      0.0625       0.797619     0            0
C2       C      0.09375      0.833334     0            0
C3       C      0.0625       0.845238     0            0
C4       C      0.09375      0.809524     0            0
C1       C      0.0625       0.797619     0.333333     0
C2       C      0.09375      0.833334     0.333333     0
C3       C      0.0625       0.845238     0.333333     0
C4       C      0.09375      0.809524     0.333333     0
C1       C      0.0625       0.797619     0.666667     0
C2       C      0.09375      0.833334     0.666667     0
C3       C      0.0625       0.845238     0.666667     0
C4       C      0.09375      0.809524     0.666667     0
C1       C      0.0625       0.869048     0            0
C2       C      0.09375      0.904762     0            0
C3       C      0.0625       0.916666     0            0
C4       C      0.09375      0.880952     0            0
C1       C      0.0625       0.869048     0.333333     0
C2       C      0.09375      0.904762     0.333333     0
C3       C      0.0625       0.916666     0.333333     0
C4       C      0.09375      0.880952     0.333333     0
C1       C      0.0625       0.869048     0.666667     0
C2       C      0.09375      0.904762     0.666667     0
C3       C      0.0625       0.916666     0.666667     0
C4       C      0.09375      0.880952     0.666667     0
C1       C      0.0625       0.940476     0            0
C2       C      0.09375      0.976191     0            0
C3       C      0.0625       0.988095     0            0
C4       C      0.09375      0.952381     0            0
C1       C      0.0625       0.940476     0.333333     0
C2       C      0.09375      0.976191     0.333333     0
C3       C      0.0625       0.988095     0.333333     0
C4       C      0.09375      0.952381     0.333333     0
C1       C      0.0625       0.940476     0.666667     0
C2       C      0.09375      0.976191     0.666667     0
C3       C      0.0625       0.988095     0.666667     0
C4       C      0.09375      0.952381     0.666667     0
C1       C      0.125        0.011905     0            0
C2       C      0.15625      0.0476193    0            0
C3       C      0.125        0.0595236    0            0
C4       C      0.15625      0.0238093    0            0
C1       C      0.125        0.011905     0.333333     0
C2       C      0.15625      0.0476193    0.333333     0
C3       C      0.125        0.0595236    0.333333     0
C4       C      0.15625      0.0238093    0.333333     0
C1       C      0.125        0.011905     0.666667     0
C2       C      0.15625      0.0476193    0.666667     0
C3       C      0.125        0.0595236    0.666667     0
C4       C      0.15625      0.0238093    0.666667     0
C1       C      0.125        0.0833336    0            0
C2       C      0.15625      0.119048     0            0
C3       C      0.125        0.130952     0            0
C4       C      0.15625      0.0952379    0            0
C1       C      0.125        0.0833336    0.333333     0
C2       C      0.15625      0.119048     0.333333     0
C3       C      0.125        0.130952     0.333333     0
C4       C      0.15625      0.0952379    0.333333     0
C1       C      0.125        0.0833336    0.666667     0
C2       C      0.15625      0.119048     0.666667     0
C3       C      0.125        0.130952     0.666667     0
C4       C      0.15625      0.0952379    0.666667     0
C1       C      0.125        0.154762     0            0
C2       C      0.15625      0.190476     0            0
C3       C      0.125        0.202381     0            0
C4       C      0.15625      0.166666     0            0
C1       C      0.125        0.154762     0.333333     0
C2       C      0.15625      0.190476     0.333333     0
C3       C      0.125        0.202381     0.333333     0
C4       C      0.15625      0.166666     0.333333     0
C1       C      0.125        0.154762     0.666667     0
C2       C      0.15625      0.190476     0.666667     0
C3       C      0.125        0.202381     0.666667     0
C4       C      0.15625      0.166666     0.666667     0
C1       C      0.125        0.226191     0            0
C2       C      0.15625      0.261905     0            0
C3       C      0.125        0.273809     0            0
C4       C      0.15625      0.238095     0            0
C1       C      0.125        0.226191     0.333333     0
C2       C      0.15625      0.261905     0.333333     0
C3       C      0.125        0.273809     0.333333     0
C4       C      0.15625      0.238095     0.333333     0
C1       C      0.125        0.226191     0.666667     0
C2       C      0.15625      0.261905     0.666667     0
C3       C      0.125        0.273809     0.666667     0
C4       C      0.15625      0.238095     0.666667     0
C1       C      0.125        0.297619     0            0
C2       C      0.15625      0.333334     0            0
C3       C      0.125        0.345238     0            0
C4       C      0.15625      0.309524     0            0
C1       C      0.125        0.297619     0.333333     0
C2       C      0.15625      0.333334     0.333333     0
C3       C      0.125        0.345238     0.333333     0
C4       C      0.15625      0.309524     0.333333     0
C1       C      0.125        0.297619     0.666667     0
C2       C      0.15625      0.333334     0.666667     0
C3       C      0.125        0.345238     0.666667     0
C4       C      0.15625      0.309524     0.666667     0
C1       C      0.125        0.369048     0            0
C2       C      0.15625      0.404762     0            0
C3       C      0.125        0.416666     0            0
C4       C      0.15625      0.380952     0            0
C1       C      0.125        0.369048     0.333333     0
C2       C      0.15625      0.404762     0.333333     0
C3       C      0.125        0.416666     0.333333     0
C4       C      0.15625      0.380952     0.333333     0
C1       C      0.125        0.369048     0.666667     0
C2       C      0.15625      0.404762     0.666667     0
C3       C      0.125        0.416666     0.666667     0
C4       C      0.15625      0.380952     0.666667     0
C1       C      0.125        0.440476     0            0
C2       C      0.15625      0.476191     0            0
C3       C      0.125        0.488095     0            0
C4       C      0.15625      0.452381     0            0
C1       C      0.125        0.440476     0.333333     0
C2       C      0.15625      0.476191     0.333333     0
C3       C      0.125        0.488095     0.333333     0
C4       C      0.15625      0.452381     0.333333     0
C1       C      0.125        0.440476     0.666667     0
C2       C      0.15625      0.476191     0.666667     0
C3       C      0.125        0.488095     0.666667     0
C4       C      0.15625      0.452381     0.666667     0
C1       C      0.125        0.511905     0            0
C2       C      0.15625      0.547619     0            0
C3       C      0.125        0.559524     0            0
C4       C      0.15625      0.523809     0            0
C1       C      0.125        0.511905     0.333333     0
C2       C      0.15625      0.547619     0.333333     0
C3       C      0.125        0.559524     0.333333     0
C4       C      0.15625      0.523809     0.333333     0
C1       C      0.125        0.511905     0.666667     0
C2       C      0.15625      0.547619     0.666667     0
C3       C      0.125        0.559524     0.666667     0
C4       C      0.15625      0.523809     0.666667     0
C1       C      0.125        0.583334     0            0
C2       C      0.15625      0.619048     0            0
C3       C      0.125        0.630952     0            0
C4       C      0.15625      0.595238     0            0
C1       C      0.125        0.583334     0.333333     0
C2       C      0.15625      0.619048     0.333333     0
C3       C      0.125        0.630952     0.333333     0
C4       C      0.15625      0.595238     0.333333     0
C1       C      0.125        0.583334     0.666667     0
C2       C      0.15625      0.619048     0.666667     0
C3       C      0.125        0.630952     0.666667     0
C4       C      0.15625      0.595238     0.666667     0
C1       C      0.125        0.654762     0            0
C2       C      0.15625      0.690476     0            0
C3       C      0.125        0.702381     0            0
C4       C      0.15625      0.666666     0            0
C1       C      0.125        0.654762     0.333333     0
C2       C      0.15625      0.690476     0.333333     0
C3       C      0.125        0.702381     0.333333     0
C4       C      0.15625      0.666666     0.333333     0
C1       C      0.125        0.654762     0.666667     0
C2       C      0.15625      0.690476     0.666667     0
C3       C      0.125        0.702381     0.666667     0
C4       C      0.15625      0.666666     0.666667     0
C1       C      0.125        0.726191     0            0
C2       C      0.15625      0.761905     0            0
C3       C      0.125        0.773809     0            0
C4       C      0.15625      0.738095     0            0
C1       C      0.125        0.726191     0.333333     0
C2       C      0.15625      0.761905     0.333333     0
C3       C      0.125        0.773809     0.333333     0
C4       C      0.15625      0.738095     0.333333     0
C1       C      0.125        0.726191     0.666667     0
C2       C      0.15625      0.761905     0.666667     0
C3       C      0.125        0.773809     0.666667     0
C4       C      0.15625      0.738095     0.666667     0
C1       C      0.125        0.797619     0            0
C2       C      0.15625      0.833334     0            0
C3       C      0.125        0.845238     0            0
C4       C      0.15625      0.809524     0            0
C1       C      0.125        0.797619     0.333333     0
C2       C      0.15625      0.833334     0.333333     0
C3       C      0.125        0.845238     0.333333     0
C4       C      0.15625      0.809524     0.333333     0
C1       C      0.125        0.797619     0.666667     0
C2       C      0.15625      0.833334     0.666667     0
C3       C      0.125        0.845238     0.666667     0
C4       C      0.15625      0.809524     0.666667     0
C1       C      0.125        0.869048     0            0
C2       C      0.15625      0.904762     0            0
C3       C      0.125        0.916666     0            0
C4       C      0.15625      0.880952     0            0
C1       C      0.125        0.869048     0.333333     0
C2       C      0.15625      0.904762     0.333333     0
C3       C      0.125        0.916666     0.333333     0
C4       C      0.15625      0.880952     0.333333     0
C1       C      0.125        0.869048     0.666667     0
C2       C      0.15625      0.904762     0.666667     0
C3       C      0.125        0.916666     0.666667     0
C4       C      0.15625      0.880952     0.666667     0
C1       C      0.125        0.940476     0            0
C2       C      0.15625      0.976191     0            0
C3       C      0.125        0.988095     0            0
C4       C      0.15625      0.952381     0            0
C1       C      0.125        0.940476     0.333333     0
C2       C      0.15625      0.976191     0.333333     0
C3       C      0.125        0.988095     0.333333     0
C4       C      0.15625      0.952381     0.333333     0
C1       C      0.125        0.940476     0.666667     0
C2       C      0.15625      0.976191     0.666667     0
C3       C      0.125        0.988095     0.666667     0
C4       C      0.15625      0.952381     0.666667     0
C1       C      0.1875       0.011905     0            0
C2       C      0.21875      0.0476193    0            0
C3       C      0.1875       0.0595236    0            0
C4       C      0.21875      0.0238093    0            0
C1       C      0.1875       0.011905     0.333333     0
C2       C      0.21875      0.0476193    0.333333     0
C3       C      0.1875       0.0595236    0.333333     0
C4       C      0.21875      0.0238093    0.333333     0
C1       C      0.1875       0.011905     0.666667     0
C2       C      0.21875      0.0476193    0.666667     0
C3       C      0.1875       0.0595236    0.666667     0
C4       C      0.21875      0.0238093    0.666667     0
C1       C      0.1875       0.0833336    0            0
C2       C      0.21875      0.119048     0            0
C3       C      0.1875       0.130952     0            0
C4       C      0.21875      0.0952379    0            0
C1       C      0.1875       0.0833336    0.333333     0
C2       C      0.21875      0.119048     0.333333     0
C3       C      0.1875       0.130952     0.333333     0
C4       C      0.21875      0.0952379    0.333333     0
C1       C      0.1875       0.0833336    0.666667     0
C2       C      0.21875      0.119048     0.666667     0
C3       C      0.1875       0.130952     0.666667     0
C4       C      0.21875      0.0952379    0.666667     0
C1       C      0.1875       0.154762     0            0
C2       C      0.21875      0.190476     0            0
C3       C      0.1875       0.202381     0            0
C4       C      0.21875      0.166666     0            0
C1       C      0.1875       0.154762     0.333333     0
C2       C      0.21875      0.190476     0.333333     0
C3       C      0.1875       0.202381     0.333333     0
C4       C      0.21875      0.166666     0.333333     0
C1       C      0.1875       0.154762     0.666667     0
C2       C      0.21875      0.190476     0.666667     0
C3       C      0.1875       0.202381     0.666667     0
C4       C      0.21875      0.166666     0.666667     0
C1       C      0.1875       0.226191     0            0
C2       C      0.21875      0.261905     0            0
C3       C      0.1875       0.273809     0            0
C4       C      0.21875      0.238095     0            0
C1       C      0.1875       0.226191     0.333333     0
C2       C      0.21875      0.261905     0.333333     0
C3       C      0.1875       0.273809     0.333333     0
C4       C      0.21875      0.238095     0.333333     0
C1       C      0.1875       0.226191     0.666667     0
C2       C      0.21875      0.261905     0.666667     0
C3       C      0.1875       0.273809     0.666667     0
C4       C      0.21875      0.238095     0.666667     0
C1       C      0.1875       0.297619     0            0
C2       C      0.21875      0.333334     0            0
C3       C      0.1875       0.345238     0            0
C4       C      0.21875      0.309524     0            0
C1       C      0.1875       0.297619     0.333333     0
C2       C      0.21875      0.333334     0.333333     0
C3       C      0.1875       0.345238     0.333333     0
C4       C      0.21875      0.309524     0.333333     0
C1       C      0.1875       0.297619     0.666667     0
C2       C      0.21875      0.333334     0.666667     0
C3       C      0.1875       0.345238     0.666667     0
C4       C      0.21875      0.309524     0.666667     0
C1       C      0.1875       0.369048     0            0
C2       C      0.21875      0.404762     0            0
C3       C      0.1875       0.416666     0            0
C4       C      0.21875      0.380952     0            0
C1       C      0.1875       0.369048     0.333333     0
C2       C      0.21875      0.404762     0.333333     0
C3       C      0.1875       0.416666     0.333333     0
C4       C      0.21875      0.380952     0.333333     0
C1       C      0.1875       0.369048     0.666667     0
C2       C      0.21875      0.404762     0.666667     0
C3       C      0.1875       0.416666     0.666667     0
C4       C      0.21875      0.380952     0.666667     0
C1       C      0.1875       0.440476     0            0
C2       C      0.21875      0.476191     0            0
C3       C      0.1875       0.488095     0            0
C4       C      0.21875      0.452381     0            0
C1       C      0.1875       0.440476     0.333333     0
C2       C      0.21875      0.476191     0.333333     0
C3       C      0.1875       0.488095     0.333333     0
C4       C      0.21875      0.452381     0.333333     0
C1       C      0.1875       0.440476     0.666667     0
C2       C      0.21875      0.476191     0.666667     0
C3       C      0.1875       0.488095     0.666667     0
C4       C      0.21875      0.452381     0.666667     0
C1       C      0.1875       0.511905     0            0
C2       C      0.21875      0.547619     0            0
C3       C      0.1875       0.559524     0            0
C4       C      0.21875      0.523809     0            0
C1       C      0.1875       0.511905     0.333333     0
C2       C      0.21875      0.547619     0.333333     0
C3       C      0.1875       0.559524     0.333333     0
C4       C      0.21875      0.523809     0.333333     0
C1       C      0.1875       0.511905     0.666667     0
C2       C      0.21875      0.547619     0.666667     0
C3       C      0.1875       0.559524     0.666667     0
C4       C      0.21875      0.523809     0.666667     0
C1       C      0.1875       0.583334     0            0
C2       C      0.21875      0.619048     0            0
C3       C      0.1875       0.630952     0            0
C4       C      0.21875      0.595238     0            0
C1       C      0.1875       0.583334     0.333333     0
C2       C      0.21875      0.619048     0.333333     0
C3       C      0.1875       0.630952     0.333333     0
C4       C      0.21875      0.595238     0.333333     0
C1       C      0.1875       0.583334     0.666667     0
C2       C      0.21875      0.619048     0.666667     0
C3       C      0.1875       0.630952     0.666667     0
C4       C      0.21875      0.595238     0.666667     0
C1       C      0.1875       0.654762     0            0
C2       C      0.21875      0.690476     0            0
C3       C      0.1875       0.702381     0            0
C4       C      0.21875      0.666666     0            0
C1       C      0.1875       0.654762     0.333333     0
C2       C      0.21875      0.690476     0.333333     0
C3       C      0.1875       0.702381     0.333333     0
C4       C      0.21875      0.666666     0.333333     0
C1       C      0.1875       0.654762     0.666667     0
C2       C      0.21875      0.690476     0.666667     0
C3       C      0.1875       0.702381     0.666667     0
C4       C      0.21875      0.666666     0.666667     0
C1       C      0.1875       0.726191     0            0
C2       C      0.21875      0.761905     0            0
C3       C      0.1875       0.773809     0            0
C4       C      0.21875      0.738095     0            0
C1       C      0.1875       0.726191     0.333333     0
C2       C      0.21875      0.761905     0.333333     0
C3       C      0.1875       0.773809     0.333333     0
C4       C      0.21875      0.738095     0.333333     0
C1       C      0.1875       0.726191     0.666667     0
C2       C      0.21875      0.761905     0.666667     0
C3       C      0.1875       0.773809     0.666667     0
C4       C      0.21875      0.738095     0.666667     0
C1       C      0.1875       0.797619     0            0
C2       C      0.21875      0.833334     0            0
C3       C      0.1875       0.845238     0            0
C4       C      0.21875      0.809524     0            0
C1       C      0.1875       0.797619     0.333333     0
C2       C      0.21875      0.833334     0.333333     0
C3       C      0.1875       0.845238     0.333333     0
C4       C      0.21875      0.809524     0.333333     0
C1       C      0.1875       0.797619     0.666667     0
C2       C      0.21875      0.833334     0.666667     0
C3       C      0.1875       0.845238     0.666667     0
C4       C      0.21875      0.809524     0.666667     0
C1       C      0.1875       0.869048     0            0
C2       C      0.21875      0.904762     0            0
C3       C      0.1875       0.916666     0            0
C4       C      0.21875      0.880952     0            0
C1       C      0.1875       0.869048     0.333333     0
C2       C      0.21875      0.904762     0.333333     0
C3       C      0.1875       0.916666     0.333333     0
C4       C      0.21875      0.880952     0.333333     0
C1       C      0.1875       0.869048     0.666667     0
C2       C      0.21875      0.904762     0.666667     0
C3       C      0.1875       0.916666     0.666667     0
C4       C      0.21875      0.880952     0.666667     0
C1       C      0.1875       0.940476     0            0
C2       C      0.21875      0.976191     0            0
C3       C      0.1875       0.988095     0            0
C4       C      0.21875      0.952381     0            0
C1       C      0.1875       0.940476     0.333333     0
C2       C      0.21875      0.976191     0.333333     0
C3       C      0.1875       0.988095     0.333333     0
C4       C      0.21875      0.952381     0.333333     0
C1       C      0.1875       0.940476     0.666667     0
C2       C      0.21875      0.976191     0.666667     0
C3       C      0.1875       0.988095     0.666667     0
C4       C      0.21875      0.952381     0.666667     0
C1       C      0.25         0.011905     0            0
C2       C      0.28125      0.0476193    0            0
C3       C      0.25         0.0595236    0            0
C4       C      0.28125      0.0238093    0            0
C1       C      0.25         0.011905     0.333333     0
C2       C      0.28125      0.0476193    0.333333     0
C3       C      0.25         0.0595236    0.333333     0
C4       C      0.28125      0.0238093    0.333333     0
C1       C      0.25         0.011905     0.666667     0
C2       C      0.28125      0.0476193    0.666667     0
C3       C      0.25         0.0595236    0.666667     0
C4       C      0.28125      0.0238093    0.666667     0
C1       C      0.25         0.0833336    0            0
C2       C      0.28125      0.119048     0            0
C3       C      0.25         0.130952     0            0
C4       C      0.28125      0.0952379    0            0
C1       C      0.25         0.0833336    0.333333     0
C2       C      0.28125      0.119048     0.333333     0
C3       C      0.25         0.130952     0.333333     0
C4       C      0.28125      0.0952379    0.333333     0
C1       C      0.25         0.0833336    0.666667     0
C2       C      0.28125      0.119048     0.666667     0
C3       C      0.25         0.130952     0.666667     0
C4       C      0.28125      0.0952379    0.666667     0
C1       C      0.25         0.154762     0            0
C2       C      0.28125      0.190476     0            0
C3       C      0.25         0.202381     0            0
C4       C      0.28125      0.166666     0            0
C1       C      0.25         0.154762     0.333333     0
C2       C      0.28125      0.190476     0.333333     0
C3       C      0.25         0.202381     0.333333     0
C4       C      0.28125      0.166666     0.333333     0
C1       C      0.25         0.154762     0.666667     0
C2       C      0.28125      0.190476     0.666667     0
C3       C      0.25         0.202381     0.666667     0
C4       C      0.28125      0.166666     0.666667     0
C1       C      0.25         0.226191     0            0
C2       C      0.28125      0.261905     0            0
C3       C      0.25         0.273809     0            0
C4       C      0.28125      0.238095     0            0
C1       C      0.25         0.226191     0.333333     0
C2       C      0.28125      0.261905     0.333333     0
C3       C      0.25         0.273809     0.333333     0
C4       C      0.28125      0.238095     0.333333     0
C1       C      0.25         0.226191     0.666667     0
C2       C      0.28125      0.261905     0.666667     0
C3       C      0.25         0.273809     0.666667     0
C4       C      0.28125      0.238095     0.666667     0
C1       C      0.25         0.297619     0            0
C2       C      0.28125      0.333334     0            0
C3       C      0.25         0.345238     0            0
C4       C      0.28125      0.309524     0            0
C1       C      0.25         0.297619     0.333333     0
C2       C      0.28125      0.333334     0.333333     0
C3       C      0.25         0.345238     0.333333     0
C4       C      0.28125      0.309524     0.333333     0
C1       C      0.25         0.297619     0.666667     0
C2       C      0.28125      0.333334     0.666667     0
C3       C      0.25         0.345238     0.666667     0
C4       C      0.28125      0.309524     0.666667     0
C1       C      0.25         0.369048     0            0
C2       C      0.28125      0.404762     0            0
C3       C      0.25         0.416666     0            0
C4       C      0.28125      0.380952     0            0
C1       C      0.25         0.369048     0.333333     0
C2       C      0.28125      0.404762     0.333333     0
C3       C      0.25         0.416666     0.333333     0
C4       C      0.28125      0.380952     0.333333     0
C1       C      0.25         0.369048     0.666667     0
C2       C      0.28125      0.404762     0.666667     0
C3       C      0.25         0.416666     0.666667     0
C4       C      0.28125      0.380952     0.666667     0
C1       C      0.25         0.440476     0            0
C2       C      0.28125      0.476191     0            0
C3       C      0.25         0.488095     0            0
C4       C      0.28125      0.452381     0            0
C1       C      0.25         0.440476     0.333333     0
C2       C      0.28125      0.476191     0.333333     0
C3       C      0.25         0.488095     0.333333     0
C4       C      0.28125      0.452381     0.333333     0
C1       C      0.25         0.440476     0.666667     0
C2       C      0.28125      0.476191     0.666667     0
C3       C      0.25         0.488095     0.666667     0
C4       C      0.28125      0.452381     0.666667     0
C1       C      0.25         0.511905     0            0
C2       C      0.28125      0.547619     0            0
C3       C      0.25         0.559524     0            0
C4       C      0.28125      0.523809     0            0
C1       C      0.25         0.511905     0.333333     0
C2       C      0.28125      0.547619     0.333333     0
C3       C      0.25         0.559524     0.333333     0
C4       C      0.28125      0.523809     0.333333     0
C1       C      0.25         0.511905     0.666667     0
C2       C      0.28125      0.547619     0.666667     0
C3       C      0.25         0.559524     0.666667     0
C4       C      0.28125      0.523809     0.666667     0
C1       C      0.25         0.583334     0            0
C2       C      0.28125      0.619048     0            0
C3       C      0.25         0.630952     0            0
C4       C      0.28125      0.595238     0            0
C1       C      0.25         0.583334     0.333333     0
C2       C      0.28125      0.619048     0.333333     0
C3       C      0.25         0.630952     0.333333     0
C4       C      0.28125      0.595238     0.333333     0
C1       C      0.25         0.583334     0.666667     0
C2       C      0.28125      0.619048     0.666667     0
C3       C      0.25         0.630952     0.666667     0
C4       C      0.28125      0.595238     0.666667     0
C1       C      0.25         0.654762     0            0
C2       C      0.28125      0.690476     0            0
C3       C      0.25         0.702381     0            0
C4       C      0.28125      0.666666     0            0
C1       C      0.25         0.654762     0.333333     0
C2       C      0.28125      0.690476     0.333333     0
C3       C      0.25         0.702381     0.333333     0
C4       C      0.28125      0.666666     0.333333     0
C1       C      0.25         0.654762     0.666667     0
C2       C      0.28125      0.690476     0.666667     0
C3       C      0.25         0.702381     0.666667     0
C4       C      0.28125      0.666666     0.666667     0
C1       C      0.25         0.726191     0            0
C2       C      0.28125      0.761905     0            0
C3       C      0.25         0.773809     0            0
C4       C      0.28125      0.738095     0            0
C1       C      0.25         0.726191     0.333333     0
C2       C      0.28125      0.761905     0.333333     0
C3       C      0.25         0.773809     0.333333     0
C4       C      0.28125      0.738095     0.333333     0
C1       C      0.25         0.726191     0.666667     0
C2       C      0.28125      0.761905     0.666667     0
C3       C      0.25         0.773809     0.666667     0
C4       C      0.28125      0.738095     0.666667     0
C1       C      0.25         0.797619     0            0
C2       C      0.28125      0.833334     0            0
C3       C      0.25         0.845238     0            0
C4       C      0.28125      0.809524     0            0
C1       C      0.25         0.797619     0.333333     0
C2       C      0.28125      0.833334     0.333333     0
C3       C      0.25         0.845238     0.333333     0
C4       C      0.28125      0.809524     0.333333     0
C1       C      0.25         0.797619     0.666667     0
C2       C      0.28125      0.833334     0.666667     0
C3       C      0.25         0.845238     0.666667     0
C4       C      0.28125      0.809524     0.666667     0
C1       C      0.25         0.869048     0            0
C2       C      0.28125      0.904762     0            0
C3       C      0.25         0.916666     0            0
C4       C      0.28125      0.880952     0            0
C1       C      0.25         0.869048     0.333333     0
C2       C      0.28125      0.904762     0.333333     0
C3       C      0.25         0.916666     0.333333     0
C4       C      0.28125      0.880952     0.333333     0
C1       C      0.25         0.869048     0.666667     0
C2       C      0.28125      0.904762     0.666667     0
C3       C      0.25         0.916666     0.666667     0
C4       C      0.28125      0.880952     0.666667     0
C1       C      0.25         0.940476     0            0
C2       C      0.28125      0.976191     0            0
C3       C      0.25         0.988095     0            0
C4       C      0.28125      0.952381     0            0
C1       C      0.25         0.940476     0.333333     0
C2       C      0.28125      0.976191     0.333333     0
C3       C      0.25         0.988095     0.333333     0
C4       C      0.28125      0.952381     0.333333     0
C1       C      0.25         0.940476     0.666667     0
C2       C      0.28125      0.976191     0.666667     0
C3       C      0.25         0.988095     0.666667     0
C4       C      0.28125      0.952381     0.666667     0
C1       C      0.3125       0.011905     0            0
C2       C      0.34375      0.0476193    0            0
C3       C      0.3125       0.0595236    0            0
C4       C      0.34375      0.0238093    0            0
C1       C      0.3125       0.011905     0.333333     0
C2       C      0.34375      0.0476193    0.333333     0
C3       C      0.3125       0.0595236    0.333333     0
C4       C      0.34375      0.0238093    0.333333     0
C1       C      0.3125       0.011905     0.666667     0
C2       C      0.34375      0.0476193    0.666667     0
C3       C      0.3125       0.0595236    0.666667     0
C4       C      0.34375      0.0238093    0.666667     0
C1       C      0.3125       0.0833336    0            0
C2       C      0.34375      0.119048     0            0
C3       C      0.3125       0.130952     0            0
C4       C      0.34375      0.0952379    0            0
C1       C      0.3125       0.0833336    0.333333     0
C2       C      0.34375      0.119048     0.333333     0
C3       C      0.3125       0.130952     0.333333     0
C4       C      0.34375      0.0952379    0.333333     0
C1       C      0.3125       0.0833336    0.666667     0
C2       C      0.34375      0.119048     0.666667     0
C3       C      0.3125       0.130952     0.666667     0
C4       C      0.34375      0.0952379    0.666667     0
C1       C      0.3125       0.154762     0            0
C2       C      0.34375      0.190476     0            0
C3       C      0.3125       0.202381     0            0
C4       C      0.34375      0.166666     0            0
C1       C      0.3125       0.154762     0.333333     0
C2       C      0.34375      0.190476     0.333333     0
C3       C      0.3125       0.202381     0.333333     0
C4       C      0.34375      0.166666     0.333333     0
C1       C      0.3125       0.154762     0.666667     0
C2       C      0.34375      0.190476     0.666667     0
C3       C      0.3125       0.202381     0.666667     0
C4       C      0.34375      0.166666     0.666667     0
C1       C      0.3125       0.226191     0            0
C2       C      0.34375      0.261905     0            0
C3       C      0.3125       0.273809     0            0
C4       C      0.34375      0.238095     0            0
C1       C      0.3125       0.226191     0.333333     0
C2       C      0.34375      0.261905     0.333333     0
C3       C      0.3125       0.273809     0.333333     0
C4       C      0.34375      0.238095     0.333333     0
C1       C      0.3125       0.226191     0.666667     0
C2       C      0.34375      0.261905     0.666667     0
C3       C      0.3125       0.273809     0.666667     0
C4       C      0.34375      0.238095     0.666667     0
C1       C      0.3125       0.297619     0            0
C2       C      0.34375      0.333334     0            0
C3       C      0.3125       0.345238     0            0
C4       C      0.34375      0.309524     0            0
C1       C      0.3125       0.297619     0.333333     0
C2       C      0.34375      0.333334     0.333333     0
C3       C      0.3125       0.345238     0.333333     0
C4       C      0.34375      0.309524     0.333333     0
C1       C      0.3125       0.297619     0.666667     0
C2       C      0.34375      0.333334     0.666667     0
C3       C      0.3125       0.345238     0.666667     0
C4       C      0.34375      0.309524     0.666667     0
C1       C      0.3125       0.369048     0            0
C2       C      0.34375      0.404762     0            0
C3       C      0.3125       0.416666     0            0
C4       C      0.34375      0.380952     0            0
C1       C      0.3125       0.369048     0.333333     0
C2       C      0.34375      0.404762     0.333333     0
C3       C      0.3125       0.416666     0.333333     0
C4       C      0.34375      0.380952     0.333333     0
C1       C      0.3125       0.369048     0.666667     0
C2       C      0.34375      0.404762     0.666667     0
C3       C      0.3125       0.416666     0.666667     0
C4       C      0.34375      0.380952     0.666667     0
C1       C      0.3125       0.440476     0            0
C2       C      0.34375      0.476191     0            0
C3       C      0.3125       0.488095     0            0
C4       C      0.34375      0.452381     0            0
C1       C      0.3125       0.440476     0.333333     0
C2       C      0.34375      0.476191     0.333333     0
C3       C      0.3125       0.488095     0.333333     0
C4       C      0.34375      0.452381     0.333333     0
C1       C      0.3125       0.440476     0.666667     0
C2       C      0.34375      0.476191     0.666667     0
C3       C      0.3125       0.488095     0.666667     0
C4       C      0.34375      0.452381     0.666667     0
C1       C      0.3125       0.511905     0            0
C2       C      0.34375      0.547619     0            0
C3       C      0.3125       0.559524     0            0
C4       C      0.34375      0.523809     0            0
C1       C      0.3125       0.511905     0.333333     0
C2       C      0.34375      0.547619     0.333333     0
C3       C      0.3125       0.559524     0.333333     0
C4       C      0.34375      0.523809     0.333333     0
C1       C      0.3125       0.511905     0.666667     0
C2       C      0.34375      0.547619     0.666667     0
C3       C      0.3125       0.559524     0.666667     0
C4       C      0.34375      0.523809     0.666667     0
C1       C      0.3125       0.583334     0            0
C2       C      0.34375      0.619048     0            0
C3       C      0.3125       0.630952     0            0
C4       C      0.34375      0.595238     0            0
C1       C      0.3125       0.583334     0.333333     0
C2       C      0.34375      0.619048     0.333333     0
C3       C      0.3125       0.630952     0.333333     0
C4       C      0.34375      0.595238     0.333333     0
C1       C      0.3125       0.583334     0.666667     0
C2       C      0.34375      0.619048     0.666667     0
C3       C      0.3125       0.630952     0.666667     0
C4       C      0.34375      0.595238     0.666667     0
C1       C      0.3125       0.654762     0            0
C2       C      0.34375      0.690476     0            0
C3       C      0.3125       0.702381     0            0
C4       C      0.34375      0.666666     0            0
C1       C      0.3125       0.654762     0.333333     0
C2       C      0.34375      0.690476     0.333333     0
C3       C      0.3125       0.702381     0.333333     0
C4       C      0.34375      0.666666     0.333333     0
C1       C      0.3125       0.654762     0.666667     0
C2       C      0.34375      0.690476     0.666667     0
C3       C      0.3125       0.702381     0.666667     0
C4       C      0.34375      0.666666     0.666667     0
C1       C      0.3125       0.726191     0            0
C2       C      0.34375      0.761905     0            0
C3       C      0.3125       0.773809     0            0
C4       C      0.34375      0.738095     0            0
C1       C      0.3125       0.726191     0.333333     0
C2       C      0.34375      0.761905     0.333333     0
C3       C      0.3125       0.773809     0.333333     0
C4       C      0.34375      0.738095     0.333333     0
C1       C      0.3125       0.726191     0.666667     0
C2       C      0.34375      0.761905     0.666667     0
C3       C      0.3125       0.773809     0.666667     0
C4       C      0.34375      0.738095     0.666667     0
C1       C      0.3125       0.797619     0            0
C2       C      0.34375      0.833334     0            0
C3       C      0.3125       0.845238     0            0
C4       C      0.34375      0.809524     0            0
C1       C      0.3125       0.797619     0.333333     0
C2       C      0.34375      0.833334     0.333333     0
C3       C      0.3125       0.845238     0.333333     0
C4       C      0.34375      0.809524     0.333333     0
C1       C      0.3125       0.797619     0.666667     0
C2       C      0.34375      0.833334     0.666667     0
C3       C      0.3125       0.845238     0.666667     0
C4       C      0.34375      0.809524     0.666667     0
C1       C      0.3125       0.869048     0            0
C2       C      0.34375      0.904762     0            0
C3       C      0.3125       0.916666     0            0
C4       C      0.34375      0.880952     0            0
C1       C      0.3125       0.869048     0.333333     0
C2       C      0.34375      0.904762     0.333333     0
C3       C      0.3125       0.916666     0.333333     0
C4       C      0.34375      0.880952     0.333333     0
C1       C      0.3125       0.869048     0.666667     0
C2       C      0.34375      0.904762     0.666667     0
C3       C      0.3125       0.916666     0.666667     0
C4       C      0.34375      0.880952     0.666667     0
C1       C      0.3125       0.940476     0            0
C2       C      0.34375      0.976191     0            0
C3       C      0.3125       0.988095     0            0
C4       C      0.34375      0.952381     0            0
C1       C      0.3125       0.940476     0.333333     0
C2       C      0.34375      0.976191     0.333333     0
C3       C      0.3125       0.988095     0.333333     0
C4       C      0.34375      0.952381     0.333333     0
C1       C      0.3125       0.940476     0.666667     0
C2       C      0.34375      0.976191     0.666667     0
C3       C      0.3125       0.988095     0.666667     0
C4       C      0.34375      0.952381     0.666667     0
C1       C      0.375        0.011905     0            0
C2       C      0.40625      0.0476193    0            0
C3       C      0.375        0.0595236    0            0
C4       C      0.40625      0.0238093    0            0
C1       C      0.375        0.011905     0.333333     0
C2       C      0.40625      0.0476193    0.333333     0
C3       C      0.375        0.0595236    0.333333     0
C4       C      0.40625      0.0238093    0.333333     0
C1       C      0.375        0.011905     0.666667     0
C2       C      0.40625      0.0476193    0.666667     0
C3       C      0.375        0.0595236    0.666667     0
C4       C      0.40625      0.0238093    0.666667     0
C1       C      0.375        0.0833336    0            0
C2       C      0.40625      0.119048     0            0
C3       C      0.375        0.130952     0            0
C4       C      0.40625      0.0952379    0            0
C1       C      0.375        0.0833336    0.333333     0
C2       C      0.40625      0.119048     0.333333     0
C3       C      0.375        0.130952     0.333333     0
C4       C      0.40625      0.0952379    0.333333     0
C1       C      0.375        0.0833336    0.666667     0
C2       C      0.40625      0.119048     0.666667     0
C3       C      0.375        0.130952     0.666667     0
C4       C      0.40625      0.0952379    0.666667     0
C1       C      0.375        0.154762     0            0
C2       C      0.40625      0.190476     0            0
C3       C      0.375        0.202381     0            0
C4       C      0.40625      0.166666     0            0
C1       C      0.375        0.154762     0.333333     0
C2       C      0.40625      0.190476     0.333333     0
C3       C      0.375        0.202381     0.333333     0
C4       C      0.40625      0.166666     0.333333     0
C1       C      0.375        0.154762     0.666667     0
C2       C      0.40625      0.190476     0.666667     0
C3       C      0.375        0.202381     0.666667     0
C4       C      0.40625      0.166666     0.666667     0
C1       C      0.375        0.226191     0            0
C2       C      0.40625      0.261905     0            0
C3       C      0.375        0.273809     0            0
C4       C      0.40625      0.238095     0            0
C1       C      0.375        0.226191     0.333333     0
C2       C      0.40625      0.261905     0.333333     0
C3       C      0.375        0.273809     0.333333     0
C4       C      0.40625      0.238095     0.333333     0
C1       C      0.375        0.226191     0.666667     0
C2       C      0.40625      0.261905     0.666667     0
C3       C      0.375        0.273809     0.666667     0
C4       C      0.40625      0.238095     0.666667     0
C1       C      0.375        0.297619     0            0
C2       C      0.40625      0.333334     0            0
C3       C      0.375        0.345238     0            0
C4       C      0.40625      0.309524     0            0
C1       C      0.375        0.297619     0.333333     0
C2       C      0.40625      0.333334     0.333333     0
C3       C      0.375        0.345238     0.333333     0
C4       C      0.40625      0.309524     0.333333     0
C1       C      0.375        0.297619     0.666667     0
C2       C      0.40625      0.333334     0.666667     0
C3       C      0.375        0.345238     0.666667     0
C4       C      0.40625      0.309524     0.666667     0
C1       C      0.375        0.369048     0            0
C2       C      0.40625      0.404762     0            0
C3       C      0.375        0.416666     0            0
C4       C      0.40625      0.380952     0            0
C1       C      0.375        0.369048     0.333333     0
C2       C      0.40625      0.404762     0.333333     0
C3       C      0.375        0.416666     0.333333     0
C4       C      0.40625      0.380952     0.333333     0
C1       C      0.375        0.369048     0.666667     0
C2       C      0.40625      0.404762     0.666667     0
C3       C      0.375        0.416666     0.666667     0
C4       C      0.40625      0.380952     0.666667     0
C1       C      0.375        0.440476     0            0
C2       C      0.40625      0.476191     0            0
C3       C      0.375        0.488095     0            0
C4       C      0.40625      0.452381     0            0
C1       C      0.375        0.440476     0.333333     0
C2       C      0.40625      0.476191     0.333333     0
C3       C      0.375        0.488095     0.333333     0
C4       C      0.40625      0.452381     0.333333     0
C1       C      0.375        0.440476     0.666667     0
C2       C      0.40625      0.476191     0.666667     0
C3       C      0.375        0.488095     0.666667     0
C4       C      0.40625      0.452381     0.666667     0
C1       C      0.375        0.511905     0            0
C2       C      0.40625      0.547619     0            0
C3       C      0.375        0.559524     0            0
C4       C      0.40625      0.523809     0            0
C1       C      0.375        0.511905     0.333333     0
C2       C      0.40625      0.547619     0.333333     0
C3       C      0.375        0.559524     0.333333     0
C4       C      0.40625      0.523809     0.333333     0
C1       C      0.375        0.511905     0.666667     0
C2       C      0.40625      0.547619     0.666667     0
C3       C      0.375        0.559524     0.666667     0
C4       C      0.40625      0.523809     0.666667     0
C1       C      0.375        0.583334     0            0
C2       C      0.40625      0.619048     0            0
C3       C      0.375        0.630952     0            0
C4       C      0.40625      0.595238     0            0
C1       C      0.375        0.583334     0.333333     0
C2       C      0.40625      0.619048     0.333333     0
C3       C      0.375        0.630952     0.333333     0
C4       C      0.40625      0.595238     0.333333     0
C1       C      0.375        0.583334     0.666667     0
C2       C      0.40625      0.619048     0.666667     0
C3       C      0.375        0.630952     0.666667     0
C4       C      0.40625      0.595238     0.666667     0
C1       C      0.375        0.654762     0            0
C2       C      0.40625      0.690476     0            0
C3       C      0.375        0.702381     0            0
C4       C      0.40625      0.666666     0            0
C1       C      0.375        0.654762     0.333333     0
C2       C      0.40625      0.690476     0.333333     0
C3       C      0.375        0.702381     0.333333     0
C4       C      0.40625      0.666666     0.333333     0
C1       C      0.375        0.654762     0.666667     0
C2       C      0.40625      0.690476     0.666667     0
C3       C      0.375        0.702381     0.666667     0
C4       C      0.40625      0.666666     0.666667     0
C1       C      0.375        0.726191     0            0
C2       C      0.40625      0.761905     0            0
C3       C      0.375        0.773809     0            0
C4       C      0.40625      0.738095     0            0
C1       C      0.375        0.726191     0.333333     0
C2       C      0.40625      0.761905     0.333333     0
C3       C      0.375        0.773809     0.333333     0
C4       C      0.40625      0.738095     0.333333     0
C1       C      0.375        0.726191     0.666667     0
C2       C      0.40625      0.761905     0.666667     0
C3       C      0.375        0.773809     0.666667     0
C4       C      0.40625      0.738095     0.666667     0
C1       C      0.375        0.797619     0            0
C2       C      0.40625      0.833334     0            0
C3       C      0.375        0.845238     0            0
C4       C      0.40625      0.809524     0            0
C1       C      0.375        0.797619     0.333333     0
C2       C      0.40625      0.833334     0.333333     0
C3       C      0.375        0.845238     0.333333     0
C4       C      0.40625      0.809524     0.333333     0
C1       C      0.375        0.797619     0.666667     0
C2       C      0.40625      0.833334     0.666667     0
C3       C      0.375        0.845238     0.666667     0
C4       C      0.40625      0.809524     0.666667     0
C1       C      0.375        0.869048     0            0
C2       C      0.40625      0.904762     0            0
C3       C      0.375        0.916666     0            0
C4       C      0.40625      0.880952     0            0
C1       C      0.375        0.869048     0.333333     0
C2       C      0.40625      0.904762     0.333333     0
C3       C      0.375        0.916666     0.333333     0
C4       C      0.40625      0.880952     0.333333     0
C1       C      0.375        0.869048     0.666667     0
C2       C      0.40625      0.904762     0.666667     0
C3       C      0.375        0.916666     0.666667     0
C4       C      0.40625      0.880952     0.666667     0
C1       C      0.375        0.940476     0            0
C2       C      0.40625      0.976191     0            0
C3       C      0.375        0.988095     0            0
C4       C      0.40625      0.952381     0            0
C1       C      0.375        0.940476     0.333333     0
C2       C      0.40625      0.976191     0.333333     0
C3       C      0.375        0.988095     0.333333     0
C4       C      0.40625      0.952381     0.333333     0
C1       C      0.375        0.940476     0.666667     0
C2       C      0.40625      0.976191     0.666667     0
C3       C      0.375        0.988095     0.666667     0
C4       C      0.40625      0.952381     0.666667     0
C1       C      0.4375       0.011905     0            0
C2       C      0.46875      0.0476193    0            0
C3       C      0.4375       0.0595236    0            0
C4       C      0.46875      0.0238093    0            0
C1       C      0.4375       0.011905     0.333333     0
C2       C      0.46875      0.0476193    0.333333     0
C3       C      0.4375       0.0595236    0.333333     0
C4       C      0.46875      0.0238093    0.333333     0
C1       C      0.4375       0.011905     0.666667     0
C2       C      0.46875      0.0476193    0.666667     0
C3       C      0.4375       0.0595236    0.666667     0
C4       C      0.46875      0.0238093    0.666667     0
C1       C      0.4375       0.0833336    0            0
C2       C      0.46875      0.119048     0            0
C3       C      0.4375       0.130952     0            0
C4       C      0.46875      0.0952379    0            0
C1       C      0.4375       0.0833336    0.333333     0
C2       C      0.46875      0.119048     0.333333     0
C3       C      0.4375       0.130952     0.333333     0
C4       C      0.46875      0.0952379    0.333333     0
C1       C      0.4375       0.0833336    0.666667     0
C2       C      0.46875      0.119048     0.666667     0
C3       C      0.4375       0.130952     0.666667     0
C4       C      0.46875      0.0952379    0.666667     0
C1       C      0.4375       0.154762     0            0
C2       C      0.46875      0.190476     0            0
C3       C      0.4375       0.202381     0            0
C4       C      0.46875      0.166666     0            0
C1       C      0.4375       0.154762     0.333333     0
C2       C      0.46875      0.190476     0.333333     0
C3       C      0.4375       0.202381     0.333333     0
C4       C      0.46875      0.166666     0.333333     0
C1       C      0.4375       0.154762     0.666667     0
C2       C      0.46875      0.190476     0.666667     0
C3       C      0.4375       0.202381     0.666667     0
C4       C      0.46875      0.166666     0.666667     0
C1       C      0.4375       0.226191     0            0
C2       C      0.46875      0.261905     0            0
C3       C      0.4375       0.273809     0            0
C4       C      0.46875      0.238095     0            0
C1       C      0.4375       0.226191     0.333333     0
C2       C      0.46875      0.261905     0.333333     0
C3       C      0.4375       0.273809     0.333333     0
C4       C      0.46875      0.238095     0.333333     0
C1       C      0.4375       0.226191     0.666667     0
C2       C      0.46875      0.261905     0.666667     0
C3       C      0.4375       0.273809     0.666667     0
C4       C      0.46875      0.238095     0.666667     0
C1       C      0.4375       0.297619     0            0
C2       C      0.46875      0.333334     0            0
C3       C      0.4375       0.345238     0            0
C4       C      0.46875      0.309524     0            0
C1       C      0.4375       0.297619     0.333333     0
C2       C      0.46875      0.333334     0.333333     0
C3       C      0.4375       0.345238     0.333333     0
C4       C      0.46875      0.309524     0.333333     0
C1       C      0.4375       0.297619     0.666667     0
C2       C      0.46875      0.333334     0.666667     0
C3       C      0.4375       0.345238     0.666667     0
C4       C      0.46875      0.309524     0.666667     0
C1       C      0.4375       0.369048     0            0
C2       C      0.46875      0.404762     0            0
C3       C      0.4375       0.416666     0            0
C4       C      0.46875      0.380952     0            0
C1       C      0.4375       0.369048     0.333333     0
C2       C      0.46875      0.404762     0.333333     0
C3       C      0.4375       0.416666     0.333333     0
C4       C      0.46875      0.380952     0.333333     0
C1       C      0.4375       0.369048     0.666667     0
C2       C      0.46875      0.404762     0.666667     0
C3       C      0.4375       0.416666     0.666667     0
C4       C      0.46875      0.380952     0.666667     0
C1       C      0.4375       0.440476     0            0
C2       C      0.46875      0.476191     0            0
C3       C      0.4375       0.488095     0            0
C4       C      0.46875      0.452381     0            0
C1       C      0.4375       0.440476     0.333333     0
C2       C      0.46875      0.476191     0.333333     0
C3       C      0.4375       0.488095     0.333333     0
C4       C      0.46875      0.452381     0.333333     0
C1       C      0.4375       0.440476     0.666667     0
C2       C      0.46875      0.476191     0.666667     0
C3       C      0.4375       0.488095     0.666667     0
C4       C      0.46875      0.452381     0.666667     0
C1       C      0.4375       0.511905     0            0
C2       C      0.46875      0.547619     0            0
C3       C      0.4375       0.559524     0            0
C4       C      0.46875      0.523809     0            0
C1       C      0.4375       0.511905     0.333333     0
C2       C      0.46875      0.547619     0.333333     0
C3       C      0.4375       0.559524     0.333333     0
C4       C      0.46875      0.523809     0.333333     0
C1       C      0.4375       0.511905     0.666667     0
C2       C      0.46875      0.547619     0.666667     0
C3       C      0.4375       0.559524     0.666667     0
C4       C      0.46875      0.523809     0.666667     0
C1       C      0.4375       0.583334     0            0
C2       C      0.46875      0.619048     0            0
C3       C      0.4375       0.630952     0            0
C4       C      0.46875      0.595238     0            0
C1       C      0.4375       0.583334     0.333333     0
C2       C      0.46875      0.619048     0.333333     0
C3       C      0.4375       0.630952     0.333333     0
C4       C      0.46875      0.595238     0.333333     0
C1       C      0.4375       0.583334     0.666667     0
C2       C      0.46875      0.619048     0.666667     0
C3       C      0.4375       0.630952     0.666667     0
C4       C      0.46875      0.595238     0.666667     0
C1       C      0.4375       0.654762     0            0
C2       C      0.46875      0.690476     0            0
C3       C      0.4375       0.702381     0            0
C4       C      0.46875      0.666666     0            0
C1       C      0.4375       0.654762     0.333333     0
C2       C      0.46875      0.690476     0.333333     0
C3       C      0.4375       0.702381     0.333333     0
C4       C      0.46875      0.666666     0.333333     0
C1       C      0.4375       0.654762     0.666667     0
C2       C      0.46875      0.690476     0.666667     0
C3       C      0.4375       0.702381     0.666667     0
C4       C      0.46875      0.666666     0.666667     0
C1       C      0.4375       0.726191     0            0
C2       C      0.46875      0.761905     0            0
C3       C      0.4375       0.773809     0            0
C4       C      0.46875      0.738095     0            0
C1       C      0.4375       0.726191     0.333333     0
C2       C      0.46875      0.761905     0.333333     0
C3       C      0.4375       0.773809     0.333333     0
C4       C      0.46875      0.738095     0.333333     0
C1       C      0.4375       0.726191     0.666667     0
C2       C      0.46875      0.761905     0.666667     0
C3       C      0.4375       0.773809     0.666667     0
C4       C      0.46875      0.738095     0.666667     0
C1       C      0.4375       0.797619     0            0
C2       C      0.46875      0.833334     0            0
C3       C      0.4375       0.845238     0            0
C4       C      0.46875      0.809524     0            0
C1       C      0.4375       0.797619     0.333333     0
C2       C      0.46875      0.833334     0.333333     0
C3       C      0.4375       0.845238     0.333333     0
C4       C      0.46875      0.809524     0.333333     0
C1       C      0.4375       0.797619     0.666667     0
C2       C      0.46875      0.833334     0.666667     0
C3       C      0.4375       0.845238     0.666667     0
C4       C      0.46875      0.809524     0.666667     0
C1       C      0.4375       0.869048     0            0
C2       C      0.46875      0.904762     0            0
C3       C      0.4375       0.916666     0            0
C4       C      0.46875      0.880952     0            0
C1       C      0.4375       0.869048     0.333333     0
C2       C      0.46875      0.904762     0.333333     0
C3       C      0.4375       0.916666     0.333333     0
C4       C      0.46875      0.880952     0.333333     0
C1       C      0.4375       0.869048     0.666667     0
C2       C      0.46875      0.904762     0.666667     0
C3       C      0.4375       0.916666     0.666667     0
C4       C      0.46875      0.880952     0.666667     0
C1       C      0.4375       0.940476     0            0
C2       C      0.46875      0.976191     0            0
C3       C      0.4375       0.988095     0            0
C4       C      0.46875      0.952381     0            0
C1       C      0.4375       0.940476     0.333333     0
C2       C      0.46875      0.976191     0.333333     0
C3       C      0.4375       0.988095     0.333333     0
C4       C      0.46875      0.952381     0.333333     0
C1       C      0.4375       0.940476     0.666667     0
C2       C      0.46875      0.976191     0.666667     0
C3       C      0.4375       0.988095     0.666667     0
C4       C      0.46875      0.952381     0.666667     0
C1       C      0.5          0.011905     0            0
C2       C      0.53125      0.0476193    0            0
C3       C      0.5          0.0595236    0            0
C4       C      0.53125      0.0238093    0            0
C1       C      0.5          0.011905     0.333333     0
C2       C      0.53125      0.0476193    0.333333     0
C3       C      0.5          0.0595236    0.333333     0
C4       C      0.53125      0.0238093    0.333333     0
C1       C      0.5          0.011905     0.666667     0
C2       C      0.53125      0.0476193    0.666667     0
C3       C      0.5          0.0595236    0.666667     0
C4       C      0.53125      0.0238093    0.666667     0
C1       C      0.5          0.0833336    0            0
C2       C      0.53125      0.119048     0            0
C3       C      0.5          0.130952     0            0
C4       C      0.53125      0.0952379    0            0
C1       C      0.5          0.0833336    0.333333     0
C2       C      0.53125      0.119048     0.333333     0
C3       C      0.5          0.130952     0.333333     0
C4       C      0.53125      0.0952379    0.333333     0
C1       C      0.5          0.0833336    0.666667     0
C2       C      0.53125      0.119048     0.666667     0
C3       C      0.5          0.130952     0.666667     0
C4       C      0.53125      0.0952379    0.666667     0
C1       C      0.5          0.154762     0            0
C2       C      0.53125      0.190476     0            0
C3       C      0.5          0.202381     0            0
C4       C      0.53125      0.166666     0            0
C1       C      0.5          0.154762     0.333333     0
C2       C      0.53125      0.190476     0.333333     0
C3       C      0.5          0.202381     0.333333     0
C4       C      0.53125      0.166666     0.333333     0
C1       C      0.5          0.154762     0.666667     0
C2       C      0.53125      0.190476     0.666667     0
C3       C      0.5          0.202381     0.666667     0
C4       C      0.53125      0.166666     0.666667     0
C1       C      0.5          0.226191     0            0
C2       C      0.53125      0.261905     0            0
C3       C      0.5          0.273809     0            0
C4       C      0.53125      0.238095     0            0
C1       C      0.5          0.226191     0.333333     0
C2       C      0.53125      0.261905     0.333333     0
C3       C      0.5          0.273809     0.333333     0
C4       C      0.53125      0.238095     0.333333     0
C1       C      0.5          0.226191     0.666667     0
C2       C      0.53125      0.261905     0.666667     0
C3       C      0.5          0.273809     0.666667     0
C4       C      0.53125      0.238095     0.666667     0
C1       C      0.5          0.297619     0            0
C2       C      0.53125      0.333334     0            0
C3       C      0.5          0.345238     0            0
C4       C      0.53125      0.309524     0            0
C1       C      0.5          0.297619     0.333333     0
C2       C      0.53125      0.333334     0.333333     0
C3       C      0.5          0.345238     0.333333     0
C4       C      0.53125      0.309524     0.333333     0
C1       C      0.5          0.297619     0.666667     0
C2       C      0.53125      0.333334     0.666667     0
C3       C      0.5          0.345238     0.666667     0
C4       C      0.53125      0.309524     0.666667     0
C1       C      0.5          0.369048     0            0
C2       C      0.53125      0.404762     0            0
C3       C      0.5          0.416666     0            0
C4       C      0.53125      0.380952     0            0
C1       C      0.5          0.369048     0.333333     0
C2       C      0.53125      0.404762     0.333333     0
C3       C      0.5          0.416666     0.333333     0
C4       C      0.53125      0.380952     0.333333     0
C1       C      0.5          0.369048     0.666667     0
C2       C      0.53125      0.404762     0.666667     0
C3       C      0.5          0.416666     0.666667     0
C4       C      0.53125      0.380952     0.666667     0
C1       C      0.5          0.440476     0            0
C2       C      0.53125      0.476191     0            0
C3       C      0.5          0.488095     0            0
C4       C      0.53125      0.452381     0            0
C1       C      0.5          0.440476     0.333333     0
C2       C      0.53125      0.476191     0.333333     0
C3       C      0.5          0.488095     0.333333     0
C4       C      0.53125      0.452381     0.333333     0
C1       C      0.5          0.440476     0.666667     0
C2       C      0.53125      0.476191     0.666667     0
C3       C      0.5          0.488095     0.666667     0
C4       C      0.53125      0.452381     0.666667     0
C1       C      0.5          0.511905     0            0
C2       C      0.53125      0.547619     0            0
C3       C      0.5          0.559524     0            0
C4       C      0.53125      0.523809     0            0
C1       C      0.5          0.511905     0.333333     0
C2       C      0.53125      0.547619     0.333333     0
C3       C      0.5          0.559524     0.333333     0
C4       C      0.53125      0.523809     0.333333     0
C1       C      0.5          0.511905     0.666667     0
C2       C      0.53125      0.547619     0.666667     0
C3       C      0.5          0.559524     0.666667     0
C4       C      0.53125      0.523809     0.666667     0
C1       C      0.5          0.583334     0            0
C2       C      0.53125      0.619048     0            0
C3       C      0.5          0.630952     0            0
C4       C      0.53125      0.595238     0            0
C1       C      0.5          0.583334     0.333333     0
C2       C      0.53125      0.619048     0.333333     0
C3       C      0.5          0.630952     0.333333     0
C4       C      0.53125      0.595238     0.333333     0
C1       C      0.5          0.583334     0.666667     0
C2       C      0.53125      0.619048     0.666667     0
C3       C      0.5          0.630952     0.666667     0
C4       C      0.53125      0.595238     0.666667     0
C1       C      0.5          0.654762     0            0
C2       C      0.53125      0.690476     0            0
C3       C      0.5          0.702381     0            0
C4       C      0.53125      0.666666     0            0
C1       C      0.5          0.654762     0.333333     0
C2       C      0.53125      0.690476     0.333333     0
C3       C      0.5          0.702381     0.333333     0
C4       C      0.53125      0.666666     0.333333     0
C1       C      0.5          0.654762     0.666667     0
C2       C      0.53125      0.690476     0.666667     0
C3       C      0.5          0.702381     0.666667     0
C4       C      0.53125      0.666666     0.666667     0
C1       C      0.5          0.726191     0            0
C2       C      0.53125      0.761905     0            0
C3       C      0.5          0.773809     0            0
C4       C      0.53125      0.738095     0            0
C1       C      0.5          0.726191     0.333333     0
C2       C      0.53125      0.761905     0.333333     0
C3       C      0.5          0.773809     0.333333     0
C4       C      0.53125      0.738095     0.333333     0
C1       C      0.5          0.726191     0.666667     0
C2       C      0.53125      0.761905     0.666667     0
C3       C      0.5          0.773809     0.666667     0
C4       C      0.53125      0.738095     0.666667     0
C1       C      0.5          0.797619     0            0
C2       C      0.53125      0.833334     0            0
C3       C      0.5          0.845238     0            0
C4       C      0.53125      0.809524     0            0
C1       C      0.5          0.797619     0.333333     0
C2       C      0.53125      0.833334     0.333333     0
C3       C      0.5          0.845238     0.333333     0
C4       C      0.53125      0.809524     0.333333     0
C1       C      0.5          0.797619     0.666667     0
C2       C      0.53125      0.833334     0.666667     0
C3       C      0.5          0.845238     0.666667     0
C4       C      0.53125      0.809524     0.666667     0
C1       C      0.5          0.869048     0            0
C2       C      0.53125      0.904762     0            0
C3       C      0.5          0.916666     0            0
C4       C      0.53125      0.880952     0            0
C1       C      0.5          0.869048     0.333333     0
C2       C      0.53125      0.904762     0.333333     0
C3       C      0.5          0.916666     0.333333     0
C4       C      0.53125      0.880952     0.333333     0
C1       C      0.5          0.869048     0.666667     0
C2       C      0.53125      0.904762     0.666667     0
C3       C      0.5          0.916666     0.666667     0
C4       C      0.53125      0.880952     0.666667     0
C1       C      0.5          0.940476     0            0
C2       C      0.53125      0.976191     0            0
C3       C      0.5          0.988095     0            0
C4       C      0.53125      0.952381     0            0
C1       C      0.5          0.940476     0.333333     0
C2       C      0.53125      0.976191     0.333333     0
C3       C      0.5          0.988095     0.333333     0
C4       C      0.53125      0.952381     0.333333     0
C1       C      0.5          0.940476     0.666667     0
C2       C      0.53125      0.976191     0.666667     0
C3       C      0.5          0.988095     0.666667     0
C4       C      0.53125      0.952381     0.666667     0
C1       C      0.5625       0.011905     0            0
C2       C      0.59375      0.0476193    0            0
C3       C      0.5625       0.0595236    0            0
C4       C      0.59375      0.0238093    0            0
C1       C      0.5625       0.011905     0.333333     0
C2       C      0.59375      0.0476193    0.333333     0
C3       C      0.5625       0.0595236    0.333333     0
C4       C      0.59375      0.0238093    0.333333     0
C1       C      0.5625       0.011905     0.666667     0
C2       C      0.59375      0.0476193    0.666667     0
C3       C      0.5625       0.0595236    0.666667     0
C4       C      0.59375      0.0238093    0.666667     0
C1       C      0.5625       0.0833336    0            0
C2       C      0.59375      0.119048     0            0
C3       C      0.5625       0.130952     0            0
C4       C      0.59375      0.0952379    0            0
C1       C      0.5625       0.0833336    0.333333     0
C2       C      0.59375      0.119048     0.333333     0
C3       C      0.5625       0.130952     0.333333     0
C4       C      0.59375      0.0952379    0.333333     0
C1       C      0.5625       0.0833336    0.666667     0
C2       C      0.59375      0.119048     0.666667     0
C3       C      0.5625       0.130952     0.666667     0
C4       C      0.59375      0.0952379    0.666667     0
C1       C      0.5625       0.154762     0            0
C2       C      0.59375      0.190476     0            0
C3       C      0.5625       0.202381     0            0
C4       C      0.59375      0.166666     0            0
C1       C      0.5625       0.154762     0.333333     0
C2       C      0.59375      0.190476     0.333333     0
C3       C      0.5625       0.202381     0.333333     0
C4       C      0.59375      0.166666     0.333333     0
C1       C      0.5625       0.154762     0.666667     0
C2       C      0.59375      0.190476     0.666667     0
C3       C      0.5625       0.202381     0.666667     0
C4       C      0.59375      0.166666     0.666667     0
C1       C      0.5625       0.226191     0            0
C2       C      0.59375      0.261905     0            0
C3       C      0.5625       0.273809     0            0
C4       C      0.59375      0.238095     0            0
C1       C      0.5625       0.226191     0.333333     0
C2       C      0.59375      0.261905     0.333333     0
C3       C      0.5625       0.273809     0.333333     0
C4       C      0.59375      0.238095     0.333333     0
C1       C      0.5625       0.226191     0.666667     0
C2       C      0.59375      0.261905     0.666667     0
C3       C      0.5625       0.273809     0.666667     0
C4       C      0.59375      0.238095     0.666667     0
C1       C      0.5625       0.297619     0            0
C2       C      0.59375      0.333334     0            0
C3       C      0.5625       0.345238     0            0
C4       C      0.59375      0.309524     0            0
C1       C      0.5625       0.297619     0.333333     0
C2       C      0.59375      0.333334     0.333333     0
C3       C      0.5625       0.345238     0.333333     0
C4       C      0.59375      0.309524     0.333333     0
C1       C      0.5625       0.297619     0.666667     0
C2       C      0.59375      0.333334     0.666667     0
C3       C      0.5625       0.345238     0.666667     0
C4       C      0.59375      0.309524     0.666667     0
C1       C      0.5625       0.369048     0            0
C2       C      0.59375      0.404762     0            0
C3       C      0.5625       0.416666     0            0
C4       C      0.59375      0.380952     0            0
C1       C      0.5625       0.369048     0.333333     0
C2       C      0.59375      0.404762     0.333333     0
C3       C      0.5625       0.416666     0.333333     0
C4       C      0.59375      0.380952     0.333333     0
C1       C      0.5625       0.369048     0.666667     0
C2       C      0.59375      0.404762     0.666667     0
C3       C      0.5625       0.416666     0.666667     0
C4       C      0.59375      0.380952     0.666667     0
C1       C      0.5625       0.440476     0            0
C2       C      0.59375      0.476191     0            0
C3       C      0.5625       0.488095     0            0
C4       C      0.59375      0.452381     0            0
C1       C      0.5625       0.440476     0.333333     0
C2       C      0.59375      0.476191     0.333333     0
C3       C      0.5625       0.488095     0.333333     0
C4       C      0.59375      0.452381     0.333333     0
C1       C      0.5625       0.440476     0.666667     0
C2       C      0.59375      0.476191     0.666667     0
C3       C      0.5625       0.488095     0.666667     0
C4       C      0.59375      0.452381     0.666667     0
C1       C      0.5625       0.511905     0            0
C2       C      0.59375      0.547619     0            0
C3       C      0.5625       0.559524     0            0
C4       C      0.59375      0.523809     0            0
C1       C      0.5625       0.511905     0.333333     0
C2       C      0.59375      0.547619     0.333333     0
C3       C      0.5625       0.559524     0.333333     0
C4       C      0.59375      0.523809     0.333333     0
C1       C      0.5625       0.511905     0.666667     0
C2       C      0.59375      0.547619     0.666667     0
C3       C      0.5625       0.559524     0.666667     0
C4       C      0.59375      0.523809     0.666667     0
C1       C      0.5625       0.583334     0            0
C2       C      0.59375      0.619048     0            0
C3       C      0.5625       0.630952     0            0
C4       C      0.59375      0.595238     0            0
C1       C      0.5625       0.583334     0.333333     0
C2       C      0.59375      0.619048     0.333333     0
C3       C      0.5625       0.630952     0.333333     0
C4       C      0.59375      0.595238     0.333333     0
C1       C      0.5625       0.583334     0.666667     0
C2       C      0.59375      0.619048     0.666667     0
C3       C      0.5625       0.630952     0.666667     0
C4       C      0.59375      0.595238     0.666667     0
C1       C      0.5625       0.654762     0            0
C2       C      0.59375      0.690476     0            0
C3       C      0.5625       0.702381     0            0
C4       C      0.59375      0.666666     0            0
C1       C      0.5625       0.654762     0.333333     0
C2       C      0.59375      0.690476     0.333333     0
C3       C      0.5625       0.702381     0.333333     0
C4       C      0.59375      0.666666     0.333333     0
C1       C      0.5625       0.654762     0.666667     0
C2       C      0.59375      0.690476     0.666667     0
C3       C      0.5625       0.702381     0.666667     0
C4       C      0.59375      0.666666     0.666667     0
C1       C      0.5625       0.726191     0            0
C2       C      0.59375      0.761905     0            0
C3       C      0.5625       0.773809     0            0
C4       C      0.59375      0.738095     0            0
C1       C      0.5625       0.726191     0.333333     0
C2       C      0.59375      0.761905     0.333333     0
C3       C      0.5625       0.773809     0.333333     0
C4       C      0.59375      0.738095     0.333333     0
C1       C      0.5625       0.726191     0.666667     0
C2       C      0.59375      0.761905     0.666667     0
C3       C      0.5625       0.773809     0.666667     0
C4       C      0.59375      0.738095     0.666667     0
C1       C      0.5625       0.797619     0            0
C2       C      0.59375      0.833334     0            0
C3       C      0.5625       0.845238     0            0
C4       C      0.59375      0.809524     0            0
C1       C      0.5625       0.797619     0.333333     0
C2       C      0.59375      0.833334     0.333333     0
C3       C      0.5625       0.845238     0.333333     0
C4       C      0.59375      0.809524     0.333333     0
C1       C      0.5625       0.797619     0.666667     0
C2       C      0.59375      0.833334     0.666667     0
C3       C      0.5625       0.845238     0.666667     0
C4       C      0.59375      0.809524     0.666667     0
C1       C      0.5625       0.869048     0            0
C2       C      0.59375      0.904762     0            0
C3       C      0.5625       0.916666     0            0
C4       C      0.59375      0.880952     0            0
C1       C      0.5625       0.869048     0.333333     0
C2       C      0.59375      0.904762     0.333333     0
C3       C      0.5625       0.916666     0.333333     0
C4       C      0.59375      0.880952     0.333333     0
C1       C      0.5625       0.869048     0.666667     0
C2       C      0.59375      0.904762     0.666667     0
C3       C      0.5625       0.916666     0.666667     0
C4       C      0.59375      0.880952     0.666667     0
C1       C      0.5625       0.940476     0            0
C2       C      0.59375      0.976191     0            0
C3       C      0.5625       0.988095     0            0
C4       C      0.59375      0.952381     0            0
C1       C      0.5625       0.940476     0.333333     0
C2       C      0.59375      0.976191     0.333333     0
C3       C      0.5625       0.988095     0.333333     0
C4       C      0.59375      0.952381     0.333333     0
C1       C      0.5625       0.940476     0.666667     0
C2       C      0.59375      0.976191     0.666667     0
C3       C      0.5625       0.988095     0.666667     0
C4       C      0.59375      0.952381     0.666667     0
C1       C      0.625        0.011905     0            0
C2       C      0.65625      0.0476193    0            0
C3       C      0.625        0.0595236    0            0
C4       C      0.65625      0.0238093    0            0
C1       C      0.625        0.011905     0.333333     0
C2       C      0.65625      0.0476193    0.333333     0
C3       C      0.625        0.0595236    0.333333     0
C4       C      0.65625      0.0238093    0.333333     0
C1       C      0.625        0.011905     0.666667     0
C2       C      0.65625      0.0476193    0.666667     0
C3       C      0.625        0.0595236    0.666667     0
C4       C      0.65625      0.0238093    0.666667     0
C1       C      0.625        0.0833336    0            0
C2       C      0.65625      0.119048     0            0
C3       C      0.625        0.130952     0            0
C4       C      0.65625      0.0952379    0            0
C1       C      0.625        0.0833336    0.333333     0
C2       C      0.65625      0.119048     0.333333     0
C3       C      0.625        0.130952     0.333333     0
C4       C      0.65625      0.0952379    0.333333     0
C1       C      0.625        0.0833336    0.666667     0
C2       C      0.65625      0.119048     0.666667     0
C3       C      0.625        0.130952     0.666667     0
C4       C      0.65625      0.0952379    0.666667     0
C1       C      0.625        0.154762     0            0
C2       C      0.65625      0.190476     0            0
C3       C      0.625        0.202381     0            0
C4       C      0.65625      0.166666     0            0
C1       C      0.625        0.154762     0.333333     0
C2       C      0.65625      0.190476     0.333333     0
C3       C      0.625        0.202381     0.333333     0
C4       C      0.65625      0.166666     0.333333     0
C1       C      0.625        0.154762     0.666667     0
C2       C      0.65625      0.190476     0.666667     0
C3       C      0.625        0.202381     0.666667     0
C4       C      0.65625      0.166666     0.666667     0
C1       C      0.625        0.226191     0            0
C2       C      0.65625      0.261905     0            0
C3       C      0.625        0.273809     0            0
C4       C      0.65625      0.238095     0            0
C1       C      0.625        0.226191     0.333333     0
C2       C      0.65625      0.261905     0.333333     0
C3       C      0.625        0.273809     0.333333     0
C4       C      0.65625      0.238095     0.333333     0
C1       C      0.625        0.226191     0.666667     0
C2       C      0.65625      0.261905     0.666667     0
C3       C      0.625        0.273809     0.666667     0
C4       C      0.65625      0.238095     0.666667     0
C1       C      0.625        0.297619     0            0
C2       C      0.65625      0.333334     0            0
C3       C      0.625        0.345238     0            0
C4       C      0.65625      0.309524     0            0
C1       C      0.625        0.297619     0.333333     0
C2       C      0.65625      0.333334     0.333333     0
C3       C      0.625        0.345238     0.333333     0
C4       C      0.65625      0.309524     0.333333     0
C1       C      0.625        0.297619     0.666667     0
C2       C      0.65625      0.333334     0.666667     0
C3       C      0.625        0.345238     0.666667     0
C4       C      0.65625      0.309524     0.666667     0
C1       C      0.625        0.369048     0            0
C2       C      0.65625      0.404762     0            0
C3       C      0.625        0.416666     0            0
C4       C      0.65625      0.380952     0            0
C1       C      0.625        0.369048     0.333333     0
C2       C      0.65625      0.404762     0.333333     0
C3       C      0.625        0.416666     0.333333     0
C4       C      0.65625      0.380952     0.333333     0
C1       C      0.625        0.369048     0.666667     0
C2       C      0.65625      0.404762     0.666667     0
C3       C      0.625        0.416666     0.666667     0
C4       C      0.65625      0.380952     0.666667     0
C1       C      0.625        0.440476     0            0
C2       C      0.65625      0.476191     0            0
C3       C      0.625        0.488095     0            0
C4       C      0.65625      0.452381     0            0
C1       C      0.625        0.440476     0.333333     0
C2       C      0.65625      0.476191     0.333333     0
C3       C      0.625        0.488095     0.333333     0
C4       C      0.65625      0.452381     0.333333     0
C1       C      0.625        0.440476     0.666667     0
C2       C      0.65625      0.476191     0.666667     0
C3       C      0.625        0.488095     0.666667     0
C4       C      0.65625      0.452381     0.666667     0
C1       C      0.625        0.511905     0            0
C2       C      0.65625      0.547619     0            0
C3       C      0.625        0.559524     0            0
C4       C      0.65625      0.523809     0            0
C1       C      0.625        0.511905     0.333333     0
C2       C      0.65625      0.547619     0.333333     0
C3       C      0.625        0.559524     0.333333     0
C4       C      0.65625      0.523809     0.333333     0
C1       C      0.625        0.511905     0.666667     0
C2       C      0.65625      0.547619     0.666667     0
C3       C      0.625        0.559524     0.666667     0
C4       C      0.65625      0.523809     0.666667     0
C1       C      0.625        0.583334     0            0
C2       C      0.65625      0.619048     0            0
C3       C      0.625        0.630952     0            0
C4       C      0.65625      0.595238     0            0
C1       C      0.625        0.583334     0.333333     0
C2       C      0.65625      0.619048     0.333333     0
C3       C      0.625        0.630952     0.333333     0
C4       C      0.65625      0.595238     0.333333     0
C1       C      0.625        0.583334     0.666667     0
C2       C      0.65625      0.619048     0.666667     0
C3       C      0.625        0.630952     0.666667     0
C4       C      0.65625      0.595238     0.666667     0
C1       C      0.625        0.654762     0            0
C2       C      0.65625      0.690476     0            0
C3       C      0.625        0.702381     0            0
C4       C      0.65625      0.666666     0            0
C1       C      0.625        0.654762     0.333333     0
C2       C      0.65625      0.690476     0.333333     0
C3       C      0.625        0.702381     0.333333     0
C4       C      0.65625      0.666666     0.333333     0
C1       C      0.625        0.654762     0.666667     0
C2       C      0.65625      0.690476     0.666667     0
C3       C      0.625        0.702381     0.666667     0
C4       C      0.65625      0.666666     0.666667     0
C1       C      0.625        0.726191     0            0
C2       C      0.65625      0.761905     0            0
C3       C      0.625        0.773809     0            0
C4       C      0.65625      0.738095     0            0
C1       C      0.625        0.726191     0.333333     0
C2       C      0.65625      0.761905     0.333333     0
C3       C      0.625        0.773809     0.333333     0
C4       C      0.65625      0.738095     0.333333     0
C1       C      0.625        0.726191     0.666667     0
C2       C      0.65625      0.761905     0.666667     0
C3       C      0.625        0.773809     0.666667     0
C4       C      0.65625      0.738095     0.666667     0
C1       C      0.625        0.797619     0            0
C2       C      0.65625      0.833334     0            0
C3       C      0.625        0.845238     0            0
C4       C      0.65625      0.809524     0            0
C1       C      0.625        0.797619     0.333333     0
C2       C      0.65625      0.833334     0.333333     0
C3       C      0.625        0.845238     0.333333     0
C4       C      0.65625      0.809524     0.333333     0
C1       C      0.625        0.797619     0.666667     0
C2       C      0.65625      0.833334     0.666667     0
C3       C      0.625        0.845238     0.666667     0
C4       C      0.65625      0.809524     0.666667     0
C1       C      0.625        0.869048     0            0
C2       C      0.65625      0.904762     0            0
C3       C      0.625        0.916666     0            0
C4       C      0.65625      0.880952     0            0
C1       C      0.625        0.869048     0.333333     0
C2       C      0.65625      0.904762     0.333333     0
C3       C      0.625        0.916666     0.333333     0
C4       C      0.65625      0.880952     0.333333     0
C1       C      0.625        0.869048     0.666667     0
C2       C      0.65625      0.904762     0.666667     0
C3       C      0.625        0.916666     0.666667     0
C4       C      0.65625      0.880952     0.666667     0
C1       C      0.625        0.940476     0            0
C2       C      0.65625      0.976191     0            0
C3       C      0.625        0.988095     0            0
C4       C      0.65625      0.952381     0            0
C1       C      0.625        0.940476     0.333333     0
C2       C      0.65625      0.976191     0.333333     0
C3       C      0.625        0.988095     0.333333     0
C4       C      0.65625      0.952381     0.333333     0
C1       C      0.625        0.940476     0.666667     0
C2       C      0.65625      0.976191     0.666667     0
C3       C      0.625        0.988095     0.666667     0
C4       C      0.65625      0.952381     0.666667     0
C1       C      0.6875       0.011905     0            0
C2       C      0.71875      0.0476193    0            0
C3       C      0.6875       0.0595236    0            0
C4       C      0.71875      0.0238093    0            0
C1       C      0.6875       0.011905     0.333333     0
C2       C      0.71875      0.0476193    0.333333     0
C3       C      0.6875       0.0595236    0.333333     0
C4       C      0.71875      0.0238093    0.333333     0
C1       C      0.6875       0.011905     0.666667     0
C2       C      0.71875      0.0476193    0.666667     0
C3       C      0.6875       0.0595236    0.666667     0
C4       C      0.71875      0.0238093    0.666667     0
C1       C      0.6875       0.0833336    0            0
C2       C      0.71875      0.119048     0            0
C3       C      0.6875       0.130952     0            0
C4       C      0.71875      0.0952379    0            0
C1       C      0.6875       0.0833336    0.333333     0
C2       C      0.71875      0.119048     0.333333     0
C3       C      0.6875       0.130952     0.333333     0
C4       C      0.71875      0.0952379    0.333333     0
C1       C      0.6875       0.0833336    0.666667     0
C2       C      0.71875      0.119048     0.666667     0
C3       C      0.6875       0.130952     0.666667     0
C4       C      0.71875      0.0952379    0.666667     0
C1       C      0.6875       0.154762     0            0
C2       C      0.71875      0.190476     0            0
C3       C      0.6875       0.202381     0            0
C4       C      0.71875      0.166666     0            0
C1       C      0.6875       0.154762     0.333333     0
C2       C      0.71875      0.190476     0.333333     0
C3       C      0.6875       0.202381     0.333333     0
C4       C      0.71875      0.166666     0.333333     0
C1       C      0.6875       0.154762     0.666667     0
C2       C      0.71875      0.190476     0.666667     0
C3       C      0.6875       0.202381     0.666667     0
C4       C      0.71875      0.166666     0.666667     0
C1       C      0.6875       0.226191     0            0
C2       C      0.71875      0.261905     0            0
C3       C      0.6875       0.273809     0            0
C4       C      0.71875      0.238095     0            0
C1       C      0.6875       0.226191     0.333333     0
C2       C      0.71875      0.261905     0.333333     0
C3       C      0.6875       0.273809     0.333333     0
C4       C      0.71875      0.238095     0.333333     0
C1       C      0.6875       0.226191     0.666667     0
C2       C      0.71875      0.261905     0.666667     0
C3       C      0.6875       0.273809     0.666667     0
C4       C      0.71875      0.238095     0.666667     0
C1       C      0.6875       0.297619     0            0
C2       C      0.71875      0.333334     0            0
C3       C      0.6875       0.345238     0            0
C4       C      0.71875      0.309524     0            0
C1       C      0.6875       0.297619     0.333333     0
C2       C      0.71875      0.333334     0.333333     0
C3       C      0.6875       0.345238     0.333333     0
C4       C      0.71875      0.309524     0.333333     0
C1       C      0.6875       0.297619     0.666667     0
C2       C      0.71875      0.333334     0.666667     0
C3       C      0.6875       0.345238     0.666667     0
C4       C      0.71875      0.309524     0.666667     0
C1       C      0.6875       0.369048     0            0
C2       C      0.71875      0.404762     0            0
C3       C      0.6875       0.416666     0            0
C4       C      0.71875      0.380952     0            0
C1       C      0.6875       0.369048     0.333333     0
C2       C      0.71875      0.404762     0.333333     0
C3       C      0.6875       0.416666     0.333333     0
C4       C      0.71875      0.380952     0.333333     0
C1       C      0.6875       0.369048     0.666667     0
C2       C      0.71875      0.404762     0.666667     0
C3       C      0.6875       0.416666     0.666667     0
C4       C      0.71875      0.380952     0.666667     0
C1       C      0.6875       0.440476     0            0
C2       C      0.71875      0.476191     0            0
C3       C      0.6875       0.488095     0            0
C4       C      0.71875      0.452381     0            0
C1       C      0.6875       0.440476     0.333333     0
C2       C      0.71875      0.476191     0.333333     0
C3       C      0.6875       0.488095     0.333333     0
C4       C      0.71875      0.452381     0.333333     0
C1       C      0.6875       0.440476     0.666667     0
C2       C      0.71875      0.476191     0.666667     0
C3       C      0.6875       0.488095     0.666667     0
C4       C      0.71875      0.452381     0.666667     0
C1       C      0.6875       0.511905     0            0
C2       C      0.71875      0.547619     0            0
C3       C      0.6875       0.559524     0            0
C4       C      0.71875      0.523809     0            0
C1       C      0.6875       0.511905     0.333333     0
C2       C      0.71875      0.547619     0.333333     0
C3       C      0.6875       0.559524     0.333333     0
C4       C      0.71875      0.523809     0.333333     0
C1       C      0.6875       0.511905     0.666667     0
C2       C      0.71875      0.547619     0.666667     0
C3       C      0.6875       0.559524     0.666667     0
C4       C      0.71875      0.523809     0.666667     0
C1       C      0.6875       0.583334     0            0
C2       C      0.71875      0.619048     0            0
C3       C      0.6875       0.630952     0            0
C4       C      0.71875      0.595238     0            0
C1       C      0.6875       0.583334     0.333333     0
C2       C      0.71875      0.619048     0.333333     0
C3       C      0.6875       0.630952     0.333333     0
C4       C      0.71875      0.595238     0.333333     0
C1       C      0.6875       0.583334     0.666667     0
C2       C      0.71875      0.619048     0.666667     0
C3       C      0.6875       0.630952     0.666667     0
C4       C      0.71875      0.595238     0.666667     0
C1       C      0.6875       0.654762     0            0
C2       C      0.71875      0.690476     0            0
C3       C      0.6875       0.702381     0            0
C4       C      0.71875      0.666666     0            0
C1       C      0.6875       0.654762     0.333333     0
C2       C      0.71875      0.690476     0.333333     0
C3       C      0.6875       0.702381     0.333333     0
C4       C      0.71875      0.666666     0.333333     0
C1       C      0.6875       0.654762     0.666667     0
C2       C      0.71875      0.690476     0.666667     0
C3       C      0.6875       0.702381     0.666667     0
C4       C      0.71875      0.666666     0.666667     0
C1       C      0.6875       0.726191     0            0
C2       C      0.71875      0.761905     0            0
C3       C      0.6875       0.773809     0            0
C4       C      0.71875      0.738095     0            0
C1       C      0.6875       0.726191     0.333333     0
C2       C      0.71875      0.761905     0.333333     0
C3       C      0.6875       0.773809     0.333333     0
C4       C      0.71875      0.738095     0.333333     0
C1       C      0.6875       0.726191     0.666667     0
C2       C      0.71875      0.761905     0.666667     0
C3       C      0.6875       0.773809     0.666667     0
C4       C      0.71875      0.738095     0.666667     0
C1       C      0.6875       0.797619     0            0
C2       C      0.71875      0.833334     0            0
C3       C      0.6875       0.845238     0            0
C4       C      0.71875      0.809524     0            0
C1       C      0.6875       0.797619     0.333333     0
C2       C      0.71875      0.833334     0.333333     0
C3       C      0.6875       0.845238     0.333333     0
C4       C      0.71875      0.809524     0.333333     0
C1       C      0.6875       0.797619     0.666667     0
C2       C      0.71875      0.833334     0.666667     0
C3       C      0.6875       0.845238     0.666667     0
C4       C      0.71875      0.809524     0.666667     0
C1       C      0.6875       0.869048     0            0
C2       C      0.71875      0.904762     0            0
C3       C      0.6875       0.916666     0            0
C4       C      0.71875      0.880952     0            0
C1       C      0.6875       0.869048     0.333333     0
C2       C      0.71875      0.904762     0.333333     0
C3       C      0.6875       0.916666     0.333333     0
C4       C      0.71875      0.880952     0.333333     0
C1       C      0.6875       0.869048     0.666667     0
C2       C      0.71875      0.904762     0.666667     0
C3       C      0.6875       0.916666     0.666667     0
C4       C      0.71875      0.880952     0.666667     0
C1       C      0.6875       0.940476     0            0
C2       C      0.71875      0.976191     0            0
C3       C      0.6875       0.988095     0            0
C4       C      0.71875      0.952381     0            0
C1       C      0.6875       0.940476     0.333333     0
C2       C      0.71875      0.976191     0.333333     0
C3       C      0.6875       0.988095     0.333333     0
C4       C      0.71875      0.952381     0.333333     0
C1       C      0.6875       0.940476     0.666667     0
C2       C      0.71875      0.976191     0.666667     0
C3       C      0.6875       0.988095     0.666667     0
C4       C      0.71875      0.952381     0.666667     0
C1       C      0.75         0.011905     0            0
C2       C      0.78125      0.0476193    0            0
C3       C      0.75         0.0595236    0            0
C4       C      0.78125      0.0238093    0            0
C1       C      0.75         0.011905     0.333333     0
C2       C      0.78125      0.0476193    0.333333     0
C3       C      0.75         0.0595236    0.333333     0
C4       C      0.78125      0.0238093    0.333333     0
C1       C      0.75         0.011905     0.666667     0
C2       C      0.78125      0.0476193    0.666667     0
C3       C      0.75         0.0595236    0.666667     0
C4       C      0.78125      0.0238093    0.666667     0
C1       C      0.75         0.0833336    0            0
C2       C      0.78125      0.119048     0            0
C3       C      0.75         0.130952     0            0
C4       C      0.78125      0.0952379    0            0
C1       C      0.75         0.0833336    0.333333     0
C2       C      0.78125      0.119048     0.333333     0
C3       C      0.75         0.130952     0.333333     0
C4       C      0.78125      0.0952379    0.333333     0
C1       C      0.75         0.0833336    0.666667     0
C2       C      0.78125      0.119048     0.666667     0
C3       C      0.75         0.130952     0.666667     0
C4       C      0.78125      0.0952379    0.666667     0
C1       C      0.75         0.154762     0            0
C2       C      0.78125      0.190476     0            0
C3       C      0.75         0.202381     0            0
C4       C      0.78125      0.166666     0            0
C1       C      0.75         0.154762     0.333333     0
C2       C      0.78125      0.190476     0.333333     0
C3       C      0.75         0.202381     0.333333     0
C4       C      0.78125      0.166666     0.333333     0
C1       C      0.75         0.154762     0.666667     0
C2       C      0.78125      0.190476     0.666667     0
C3       C      0.75         0.202381     0.666667     0
C4       C      0.78125      0.166666     0.666667     0
C1       C      0.75         0.226191     0            0
C2       C      0.78125      0.261905     0            0
C3       C      0.75         0.273809     0            0
C4       C      0.78125      0.238095     0            0
C1       C      0.75         0.226191     0.333333     0
C2       C      0.78125      0.261905     0.333333     0
C3       C      0.75         0.273809     0.333333     0
C4       C      0.78125      0.238095     0.333333     0
C1       C      0.75         0.226191     0.666667     0
C2       C      0.78125      0.261905     0.666667     0
C3       C      0.75         0.273809     0.666667     0
C4       C      0.78125      0.238095     0.666667     0
C1       C      0.75         0.297619     0            0
C2       C      0.78125      0.333334     0            0
C3       C      0.75         0.345238     0            0
C4       C      0.78125      0.309524     0            0
C1       C      0.75         0.297619     0.333333     0
C2       C      0.78125      0.333334     0.333333     0
C3       C      0.75         0.345238     0.333333     0
C4       C      0.78125      0.309524     0.333333     0
C1       C      0.75         0.297619     0.666667     0
C2       C      0.78125      0.333334     0.666667     0
C3       C      0.75         0.345238     0.666667     0
C4       C      0.78125      0.309524     0.666667     0
C1       C      0.75         0.369048     0            0
C2       C      0.78125      0.404762     0            0
C3       C      0.75         0.416666     0            0
C4       C      0.78125      0.380952     0            0
C1       C      0.75         0.369048     0.333333     0
C2       C      0.78125      0.404762     0.333333     0
C3       C      0.75         0.416666     0.333333     0
C4       C      0.78125      0.380952     0.333333     0
C1       C      0.75         0.369048     0.666667     0
C2       C      0.78125      0.404762     0.666667     0
C3       C      0.75         0.416666     0.666667     0
C4       C      0.78125      0.380952     0.666667     0
C1       C      0.75         0.440476     0            0
C2       C      0.78125      0.476191     0            0
C3       C      0.75         0.488095     0            0
C4       C      0.78125      0.452381     0            0
C1       C      0.75         0.440476     0.333333     0
C2       C      0.78125      0.476191     0.333333     0
C3       C      0.75         0.488095     0.333333     0
C4       C      0.78125      0.452381     0.333333     0
C1       C      0.75         0.440476     0.666667     0
C2       C      0.78125      0.476191     0.666667     0
C3       C      0.75         0.488095     0.666667     0
C4       C      0.78125      0.452381     0.666667     0
C1       C      0.75         0.511905     0            0
C2       C      0.78125      0.547619     0            0
C3       C      0.75         0.559524     0            0
C4       C      0.78125      0.523809     0            0
C1       C      0.75         0.511905     0.333333     0
C2       C      0.78125      0.547619     0.333333     0
C3       C      0.75         0.559524     0.333333     0
C4       C      0.78125      0.523809     0.333333     0
C1       C      0.75         0.511905     0.666667     0
C2       C      0.78125      0.547619     0.666667     0
C3       C      0.75         0.559524     0.666667     0
C4       C      0.78125      0.523809     0.666667     0
C1       C      0.75         0.583334     0            0
C2       C      0.78125      0.619048     0            0
C3       C      0.75         0.630952     0            0
C4       C      0.78125      0.595238     0            0
C1       C      0.75         0.583334     0.333333     0
C2       C      0.78125      0.619048     0.333333     0
C3       C      0.75         0.630952     0.333333     0
C4       C      0.78125      0.595238     0.333333     0
C1       C      0.75         0.583334     0.666667     0
C2       C      0.78125      0.619048     0.666667     0
C3       C      0.75         0.630952     0.666667     0
C4       C      0.78125      0.595238     0.666667     0
C1       C      0.75         0.654762     0            0
C2       C      0.78125      0.690476     0            0
C3       C      0.75         0.702381     0            0
C4       C      0.78125      0.666666     0            0
C1       C      0.75         0.654762     0.333333     0
C2       C      0.78125      0.690476     0.333333     0
C3       C      0.75         0.702381     0.333333     0
C4       C      0.78125      0.666666     0.333333     0
C1       C      0.75         0.654762     0.666667     0
C2       C      0.78125      0.690476     0.666667     0
C3       C      0.75         0.702381     0.666667     0
C4       C      0.78125      0.666666     0.666667     0
C1       C      0.75         0.726191     0            0
C2       C      0.78125      0.761905     0            0
C3       C      0.75         0.773809     0            0
C4       C      0.78125      0.738095     0            0
C1       C      0.75         0.726191     0.333333     0
C2       C      0.78125      0.761905     0.333333     0
C3       C      0.75         0.773809     0.333333     0
C4       C      0.78125      0.738095     0.333333     0
C1       C      0.75         0.726191     0.666667     0
C2       C      0.78125      0.761905     0.666667     0
C3       C      0.75         0.773809     0.666667     0
C4       C      0.78125      0.738095     0.666667     0
C1       C      0.75         0.797619     0            0
C2       C      0.78125      0.833334     0            0
C3       C      0.75         0.845238     0            0
C4       C      0.78125      0.809524     0            0
C1       C      0.75         0.797619     0.333333     0
C2       C      0.78125      0.833334     0.333333     0
C3       C      0.75         0.845238     0.333333     0
C4       C      0.78125      0.809524     0.333333     0
C1       C      0.75         0.797619     0.666667     0
C2       C      0.78125      0.833334     0.666667     0
C3       C      0.75         0.845238     0.666667     0
C4       C      0.78125      0.809524     0.666667     0
C1       C      0.75         0.869048     0            0
C2       C      0.78125      0.904762     0            0
C3       C      0.75         0.916666     0            0
C4       C      0.78125      0.880952     0            0
C1       C      0.75         0.869048     0.333333     0
C2       C      0.78125      0.904762     0.333333     0
C3       C      0.75         0.916666     0.333333     0
C4       C      0.78125      0.880952     0.333333     0
C1       C      0.75         0.869048     0.666667     0
C2       C      0.78125      0.904762     0.666667     0
C3       C      0.75         0.916666     0.666667     0
C4       C      0.78125      0.880952     0.666667     0
C1       C      0.75         0.940476     0            0
C2       C      0.78125      0.976191     0            0
C3       C      0.75         0.988095     0            0
C4       C      0.78125      0.952381     0            0
C1       C      0.75         0.940476     0.333333     0
C2       C      0.78125      0.976191     0.333333     0
C3       C      0.75         0.988095     0.333333     0
C4       C      0.78125      0.952381     0.333333     0
C1       C      0.75         0.940476     0.666667     0
C2       C      0.78125      0.976191     0.666667     0
C3       C      0.75         0.988095     0.666667     0
C4       C      0.78125      0.952381     0.666667     0
C1       C      0.8125       0.011905     0            0
C2       C      0.84375      0.0476193    0            0
C3       C      0.8125       0.0595236    0            0
C4       C      0.84375      0.0238093    0            0
C1       C      0.8125       0.011905     0.333333     0
C2       C      0.84375      0.0476193    0.333333     0
C3       C      0.8125       0.0595236    0.333333     0
C4       C      0.84375      0.0238093    0.333333     0
C1       C      0.8125       0.011905     0.666667     0
C2       C      0.84375      0.0476193    0.666667     0
C3       C      0.8125       0.0595236    0.666667     0
C4       C      0.84375      0.0238093    0.666667     0
C1       C      0.8125       0.0833336    0            0
C2       C      0.84375      0.119048     0            0
C3       C      0.8125       0.130952     0            0
C4       C      0.84375      0.0952379    0            0
C1       C      0.8125       0.0833336    0.333333     0
C2       C      0.84375      0.119048     0.333333     0
C3       C      0.8125       0.130952     0.333333     0
C4       C      0.84375      0.0952379    0.333333     0
C1       C      0.8125       0.0833336    0.666667     0
C2       C      0.84375      0.119048     0.666667     0
C3       C      0.8125       0.130952     0.666667     0
C4       C      0.84375      0.0952379    0.666667     0
C1       C      0.8125       0.154762     0            0
C2       C      0.84375      0.190476     0            0
C3       C      0.8125       0.202381     0            0
C4       C      0.84375      0.166666     0            0
C1       C      0.8125       0.154762     0.333333     0
C2       C      0.84375      0.190476     0.333333     0
C3       C      0.8125       0.202381     0.333333     0
C4       C      0.84375      0.166666     0.333333     0
C1       C      0.8125       0.154762     0.666667     0
C2       C      0.84375      0.190476     0.666667     0
C3       C      0.8125       0.202381     0.666667     0
C4       C      0.84375      0.166666     0.666667     0
C1       C      0.8125       0.226191     0            0
C2       C      0.84375      0.261905     0            0
C3       C      0.8125       0.273809     0            0
C4       C      0.84375      0.238095     0            0
C1       C      0.8125       0.226191     0.333333     0
C2       C      0.84375      0.261905     0.333333     0
C3       C      0.8125       0.273809     0.333333     0
C4       C      0.84375      0.238095     0.333333     0
C1       C      0.8125       0.226191     0.666667     0
C2       C      0.84375      0.261905     0.666667     0
C3       C      0.8125       0.273809     0.666667     0
C4       C      0.84375      0.238095     0.666667     0
C1       C      0.8125       0.297619     0            0
C2       C      0.84375      0.333334     0            0
C3       C      0.8125       0.345238     0            0
C4       C      0.84375      0.309524     0            0
C1       C      0.8125       0.297619     0.333333     0
C2       C      0.84375      0.333334     0.333333     0
C3       C      0.8125       0.345238     0.333333     0
C4       C      0.84375      0.309524     0.333333     0
C1       C      0.8125       0.297619     0.666667     0
C2       C      0.84375      0.333334     0.666667     0
C3       C      0.8125       0.345238     0.666667     0
C4       C      0.84375      0.309524     0.666667     0
C1       C      0.8125       0.369048     0            0
C2       C      0.84375      0.404762     0            0
C3       C      0.8125       0.416666     0            0
C4       C      0.84375      0.380952     0            0
C1       C      0.8125       0.369048     0.333333     0
C2       C      0.84375      0.404762     0.333333     0
C3       C      0.8125       0.416666     0.333333     0
C4       C      0.84375      0.380952     0.333333     0
C1       C      0.8125       0.369048     0.666667     0
C2       C      0.84375      0.404762     0.666667     0
C3       C      0.8125       0.416666     0.666667     0
C4       C      0.84375      0.380952     0.666667     0
C1       C      0.8125       0.440476     0            0
C2       C      0.84375      0.476191     0            0
C3       C      0.8125       0.488095     0            0
C4       C      0.84375      0.452381     0            0
C1       C      0.8125       0.440476     0.333333     0
C2       C      0.84375      0.476191     0.333333     0
C3       C      0.8125       0.488095     0.333333     0
C4       C      0.84375      0.452381     0.333333     0
C1       C      0.8125       0.440476     0.666667     0
C2       C      0.84375      0.476191     0.666667     0
C3       C      0.8125       0.488095     0.666667     0
C4       C      0.84375      0.452381     0.666667     0
C1       C      0.8125       0.511905     0            0
C2       C      0.84375      0.547619     0            0
C3       C      0.8125       0.559524     0            0
C4       C      0.84375      0.523809     0            0
C1       C      0.8125       0.511905     0.333333     0
C2       C      0.84375      0.547619     0.333333     0
C3       C      0.8125       0.559524     0.333333     0
C4       C      0.84375      0.523809     0.333333     0
C1       C      0.8125       0.511905     0.666667     0
C2       C      0.84375      0.547619     0.666667     0
C3       C      0.8125       0.559524     0.666667     0
C4       C      0.84375      0.523809     0.666667     0
C1       C      0.8125       0.583334     0            0
C2       C      0.84375      0.619048     0            0
C3       C      0.8125       0.630952     0            0
C4       C      0.84375      0.595238     0            0
C1       C      0.8125       0.583334     0.333333     0
C2       C      0.84375      0.619048     0.333333     0
C3       C      0.8125       0.630952     0.333333     0
C4       C      0.84375      0.595238     0.333333     0
C1       C      0.8125       0.583334     0.666667     0
C2       C      0.84375      0.619048     0.666667     0
C3       C      0.8125       0.630952     0.666667     0
C4       C      0.84375      0.595238     0.666667     0
C1       C      0.8125       0.654762     0            0
C2       C      0.84375      0.690476     0            0
C3       C      0.8125       0.702381     0            0
C4       C      0.84375      0.666666     0            0
C1       C      0.8125       0.654762     0.333333     0
C2       C      0.84375      0.690476     0.333333     0
C3       C      0.8125       0.702381     0.333333     0
C4       C      0.84375      0.666666     0.333333     0
C1       C      0.8125       0.654762     0.666667     0
C2       C      0.84375      0.690476     0.666667     0
C3       C      0.8125       0.702381     0.666667     0
C4       C      0.84375      0.666666     0.666667     0
C1       C      0.8125       0.726191     0            0
C2       C      0.84375      0.761905     0            0
C3       C      0.8125       0.773809     0            0
C4       C      0.84375      0.738095     0            0
C1       C      0.8125       0.726191     0.333333     0
C2       C      0.84375      0.761905     0.333333     0
C3       C      0.8125       0.773809     0.333333     0
C4       C      0.84375      0.738095     0.333333     0
C1       C      0.8125       0.726191     0.666667     0
C2       C      0.84375      0.761905     0.666667     0
C3       C      0.8125       0.773809     0.666667     0
C4       C      0.84375      0.738095     0.666667     0
C1       C      0.8125       0.797619     0            0
C2       C      0.84375      0.833334     0            0
C3       C      0.8125       0.845238     0            0
C4       C      0.84375      0.809524     0            0
C1       C      0.8125       0.797619     0.333333     0
C2       C      0.84375      0.833334     0.333333     0
C3       C      0.8125       0.845238     0.333333     0
C4       C      0.84375      0.809524     0.333333     0
C1       C      0.8125       0.797619     0.666667     0
C2       C      0.84375      0.833334     0.666667     0
C3       C      0.8125       0.845238     0.666667     0
C4       C      0.84375      0.809524     0.666667     0
C1       C      0.8125       0.869048     0            0
C2       C      0.84375      0.904762     0            0
C3       C      0.8125       0.916666     0            0
C4       C      0.84375      0.880952     0            0
C1       C      0.8125       0.869048     0.333333     0
C2       C      0.84375      0.904762     0.333333     0
C3       C      0.8125       0.916666     0.333333     0
C4       C      0.84375      0.880952     0.333333     0
C1       C      0.8125       0.869048     0.666667     0
C2       C      0.84375      0.904762     0.666667     0
C3       C      0.8125       0.916666     0.666667     0
C4       C      0.84375      0.880952     0.666667     0
C1       C      0.8125       0.940476     0            0
C2       C      0.84375      0.976191     0            0
C3       C      0.8125       0.988095     0            0
C4       C      0.84375      0.952381     0            0
C1       C      0.8125       0.940476     0.333333     0
C2       C      0.84375      0.976191     0.333333     0
C3       C      0.8125       0.988095     0.333333     0
C4       C      0.84375      0.952381     0.333333     0
C1       C      0.8125       0.940476     0.666667     0
C2       C      0.84375      0.976191     0.666667     0
C3       C      0.8125       0.988095     0.666667     0
C4       C      0.84375      0.952381     0.666667     0
C1       C      0.875        0.011905     0            0
C2       C      0.90625      0.0476193    0            0
C3       C      0.875        0.0595236    0            0
C4       C      0.90625      0.0238093    0            0
C1       C      0.875        0.011905     0.333333     0
C2       C      0.90625      0.0476193    0.333333     0
C3       C      0.875        0.0595236    0.333333     0
C4       C      0.90625      0.0238093    0.333333     0
C1       C      0.875        0.011905     0.666667     0
C2       C      0.90625      0.0476193    0.666667     0
C3       C      0.875        0.0595236    0.666667     0
C4       C      0.90625      0.0238093    0.666667     0
C1       C      0.875        0.0833336    0            0
C2       C      0.90625      0.119048     0            0
C3       C      0.875        0.130952     0            0
C4       C      0.90625      0.0952379    0            0
C1       C      0.875        0.0833336    0.333333     0
C2       C      0.90625      0.119048     0.333333     0
C3       C      0.875        0.130952     0.333333     0
C4       C      0.90625      0.0952379    0.333333     0
C1       C      0.875        0.0833336    0.666667     0
C2       C      0.90625      0.119048     0.666667     0
C3       C      0.875        0.130952     0.666667     0
C4       C      0.90625      0.0952379    0.666667     0
C1       C      0.875        0.154762     0            0
C2       C      0.90625      0.190476     0            0
C3       C      0.875        0.202381     0            0
C4       C      0.90625      0.166666     0            0
C1       C      0.875        0.154762     0.333333     0
C2       C      0.90625      0.190476     0.333333     0
C3       C      0.875        0.202381     0.333333     0
C4       C      0.90625      0.166666     0.333333     0
C1       C      0.875        0.154762     0.666667     0
C2       C      0.90625      0.190476     0.666667     0
C3       C      0.875        0.202381     0.666667     0
C4       C      0.90625      0.166666     0.666667     0
C1       C      0.875        0.226191     0            0
C2       C      0.90625      0.261905     0            0
C3       C      0.875        0.273809     0            0
C4       C      0.90625      0.238095     0            0
C1       C      0.875        0.226191     0.333333     0
C2       C      0.90625      0.261905     0.333333     0
C3       C      0.875        0.273809     0.333333     0
C4       C      0.90625      0.238095     0.333333     0
C1       C      0.875        0.226191     0.666667     0
C2       C      0.90625      0.261905     0.666667     0
C3       C      0.875        0.273809     0.666667     0
C4       C      0.90625      0.238095     0.666667     0
C1       C      0.875        0.297619     0            0
C2       C      0.90625      0.333334     0            0
C3       C      0.875        0.345238     0            0
C4       C      0.90625      0.309524     0            0
C1       C      0.875        0.297619     0.333333     0
C2       C      0.90625      0.333334     0.333333     0
C3       C      0.875        0.345238     0.333333     0
C4       C      0.90625      0.309524     0.333333     0
C1       C      0.875        0.297619     0.666667     0
C2       C      0.90625      0.333334     0.666667     0
C3       C      0.875        0.345238     0.666667     0
C4       C      0.90625      0.309524     0.666667     0
C1       C      0.875        0.369048     0            0
C2       C      0.90625      0.404762     0            0
C3       C      0.875        0.416666     0            0
C4       C      0.90625      0.380952     0            0
C1       C      0.875        0.369048     0.333333     0
C2       C      0.90625      0.404762     0.333333     0
C3       C      0.875        0.416666     0.333333     0
C4       C      0.90625      0.380952     0.333333     0
C1       C      0.875        0.369048     0.666667     0
C2       C      0.90625      0.404762     0.666667     0
C3       C      0.875        0.416666     0.666667     0
C4       C      0.90625      0.380952     0.666667     0
C1       C      0.875        0.440476     0            0
C2       C      0.90625      0.476191     0            0
C3       C      0.875        0.488095     0            0
C4       C      0.90625      0.452381     0            0
C1       C      0.875        0.440476     0.333333     0
C2       C      0.90625      0.476191     0.333333     0
C3       C      0.875        0.488095     0.333333     0
C4       C      0.90625      0.452381     0.333333     0
C1       C      0.875        0.440476     0.666667     0
C2       C      0.90625      0.476191     0.666667     0
C3       C      0.875        0.488095     0.666667     0
C4       C      0.90625      0.452381     0.666667     0
C1       C      0.875        0.511905     0            0
C2       C      0.90625      0.547619     0            0
C3       C      0.875        0.559524     0            0
C4       C      0.90625      0.523809     0            0
C1       C      0.875        0.511905     0.333333     0
C2       C      0.90625      0.547619     0.333333     0
C3       C      0.875        0.559524     0.333333     0
C4       C      0.90625      0.523809     0.333333     0
C1       C      0.875        0.511905     0.666667     0
C2       C      0.90625      0.547619     0.666667     0
C3       C      0.875        0.559524     0.666667     0
C4       C      0.90625      0.523809     0.666667     0
C1       C      0.875        0.583334     0            0
C2       C      0.90625      0.619048     0            0
C3       C      0.875        0.630952     0            0
C4       C      0.90625      0.595238     0            0
C1       C      0.875        0.583334     0.333333     0
C2       C      0.90625      0.619048     0.333333     0
C3       C      0.875        0.630952     0.333333     0
C4       C      0.90625      0.595238     0.333333     0
C1       C      0.875        0.583334     0.666667     0
C2       C      0.90625      0.619048     0.666667     0
C3       C      0.875        0.630952     0.666667     0
C4       C      0.90625      0.595238     0.666667     0
C1       C      0.875        0.654762     0            0
C2       C      0.90625      0.690476     0            0
C3       C      0.875        0.702381     0            0
C4       C      0.90625      0.666666     0            0
C1       C      0.875        0.654762     0.333333     0
C2       C      0.90625      0.690476     0.333333     0
C3       C      0.875        0.702381     0.333333     0
C4       C      0.90625      0.666666     0.333333     0
C1       C      0.875        0.654762     0.666667     0
C2       C      0.90625      0.690476     0.666667     0
C3       C      0.875        0.702381     0.666667     0
C4       C      0.90625      0.666666     0.666667     0
C1       C      0.875        0.726191     0            0
C2       C      0.90625      0.761905     0            0
C3       C      0.875        0.773809     0            0
C4       C      0.90625      0.738095     0            0
C1       C      0.875        0.726191     0.333333     0
C2       C      0.90625      0.761905     0.333333     0
C3       C      0.875        0.773809     0.333333     0
C4       C      0.90625      0.738095     0.333333     0
C1       C      0.875        0.726191     0.666667     0
C2       C      0.90625      0.761905     0.666667     0
C3       C      0.875        0.773809     0.666667     0
C4       C      0.90625      0.738095     0.666667     0
C1       C      0.875        0.797619     0            0
C2       C      0.90625      0.833334     0            0
C3       C      0.875        0.845238     0            0
C4       C      0.90625      0.809524     0            0
C1       C      0.875        0.797619     0.333333     0
C2       C      0.90625      0.833334     0.333333     0
C3       C      0.875        0.845238     0.333333     0
C4       C      0.90625      0.809524     0.333333     0
C1       C      0.875        0.797619     0.666667     0
C2       C      0.90625      0.833334     0.666667     0
C3       C      0.875        0.845238     0.666667     0
C4       C      0.90625      0.809524     0.666667     0
C1       C      0.875        0.869048     0            0
C2       C      0.90625      0.904762     0            0
C3       C      0.875        0.916666     0            0
C4       C      0.90625      0.880952     0            0
C1       C      0.875        0.869048     0.333333     0
C2       C      0.90625      0.904762     0.333333     0
C3       C      0.875        0.916666     0.333333     0
C4       C      0.90625      0.880952     0.333333     0
C1       C      0.875        0.869048     0.666667     0
C2       C      0.90625      0.904762     0.666667     0
C3       C      0.875        0.916666     0.666667     0
C4       C      0.90625      0.880952     0.666667     0
C1       C      0.875        0.940476     0            0
C2       C      0.90625      0.976191     0            0
C3       C      0.875        0.988095     0            0
C4       C      0.90625      0.952381     0            0
C1       C      0.875        0.940476     0.333333     0
C2       C      0.90625      0.976191     0.333333     0
C3       C      0.875        0.988095     0.333333     0
C4       C      0.90625      0.952381     0.333333     0
C1       C      0.875        0.940476     0.666667     0
C2       C      0.90625      0.976191     0.666667     0
C3       C      0.875        0.988095     0.666667     0
C4       C      0.90625      0.952381     0.666667     0
C1       C      0.9375       0.011905     0            0
C2       C      0.96875      0.0476193    0            0
C3       C      0.9375       0.0595236    0            0
C4       C      0.96875      0.0238093    0            0
C1       C      0.9375       0.011905     0.333333     0
C2       C      0.96875      0.0476193    0.333333     0
C3       C      0.9375       0.0595236    0.333333     0
C4       C      0.96875      0.0238093    0.333333     0
C1       C      0.9375       0.011905     0.666667     0
C2       C      0.96875      0.0476193    0.666667     0
C3       C      0.9375       0.0595236    0.666667     0
C4       C      0.96875      0.0238093    0.666667     0
C1       C      0.9375       0.0833336    0            0
C2       C      0.96875      0.119048     0            0
C3       C      0.9375       0.130952     0            0
C4       C      0.96875      0.0952379    0            0
C1       C      0.9375       0.0833336    0.333333     0
C2       C      0.96875      0.119048     0.333333     0
C3       C      0.9375       0.130952     0.333333     0
C4       C      0.96875      0.0952379    0.333333     0
C1       C      0.9375       0.0833336    0.666667     0
C2       C      0.96875      0.119048     0.666667     0
C3       C      0.9375       0.130952     0.666667     0
C4       C      0.96875      0.0952379    0.666667     0
C1       C      0.9375       0.154762     0            0
C2       C      0.96875      0.190476     0            0
C3       C      0.9375       0.202381     0            0
C4       C      0.96875      0.166666     0            0
C1       C      0.9375       0.154762     0.333333     0
C2       C      0.96875      0.190476     0.333333     0
C3       C      0.9375       0.202381     0.333333     0
C4       C      0.96875      0.166666     0.333333     0
C1       C      0.9375       0.154762     0.666667     0
C2       C      0.96875      0.190476     0.666667     0
C3       C      0.9375       0.202381     0.666667     0
C4       C      0.96875      0.166666     0.666667     0
C1       C      0.9375       0.226191     0            0
C2       C      0.96875      0.261905     0            0
C3       C      0.9375       0.273809     0            0
C4       C      0.96875      0.238095     0            0
C1       C      0.9375       0.226191     0.333333     0
C2       C      0.96875      0.261905     0.333333     0
C3       C      0.9375       0.273809     0.333333     0
C4       C      0.96875      0.238095     0.333333     0
C1       C      0.9375       0.226191     0.666667     0
C2       C      0.96875      0.261905     0.666667     0
C3       C      0.9375       0.273809     0.666667     0
C4       C      0.96875      0.238095     0.666667     0
C1       C      0.9375       0.297619     0            0
C2       C      0.96875      0.333334     0            0
C3       C      0.9375       0.345238     0            0
C4       C      0.96875      0.309524     0            0
C1       C      0.9375       0.297619     0.333333     0
C2       C      0.96875      0.333334     0.333333     0
C3       C      0.9375       0.345238     0.333333     0
C4       C      0.96875      0.309524     0.333333     0
C1       C      0.9375       0.297619     0.666667     0
C2       C      0.96875      0.333334     0.666667     0
C3       C      0.9375       0.345238     0.666667     0
C4       C      0.96875      0.309524     0.666667     0
C1       C      0.9375       0.369048     0            0
C2       C      0.96875      0.404762     0            0
C3       C      0.9375       0.416666     0            0
C4       C      0.96875      0.380952     0            0
C1       C      0.9375       0.369048     0.333333     0
C2       C      0.96875      0.404762     0.333333     0
C3       C      0.9375       0.416666     0.333333     0
C4       C      0.96875      0.380952     0.333333     0
C1       C      0.9375       0.369048     0.666667     0
C2       C      0.96875      0.404762     0.666667     0
C3       C      0.9375       0.416666     0.666667     0
C4       C      0.96875      0.380952     0.666667     0
C1       C      0.9375       0.440476     0            0
C2       C      0.96875      0.476191     0            0
C3       C      0.9375       0.488095     0            0
C4       C      0.96875      0.452381     0            0
C1       C      0.9375       0.440476     0.333333     0
C2       C      0.96875      0.476191     0.333333     0
C3       C      0.9375       0.488095     0.333333     0
C4       C      0.96875      0.452381     0.333333     0
C1       C      0.9375       0.440476     0.666667     0
C2       C      0.96875      0.476191     0.666667     0
C3       C      0.9375       0.488095     0.666667     0
C4       C      0.96875      0.452381     0.666667     0
C1       C      0.9375       0.511905     0            0
C2       C      0.96875      0.547619     0            0
C3       C      0.9375       0.559524     0            0
C4       C      0.96875      0.523809     0            0
C1       C      0.9375       0.511905     0.333333     0
C2       C      0.96875      0.547619     0.333333     0
C3       C      0.9375       0.559524     0.333333     0
C4       C      0.96875      0.523809     0.333333     0
C1       C      0.9375       0.511905     0.666667     0
C2       C      0.96875      0.547619     0.666667     0
C3       C      0.9375       0.559524     0.666667     0
C4       C      0.96875      0.523809     0.666667     0
C1       C      0.9375       0.583334     0            0
C2       C      0.96875      0.619048     0            0
C3       C      0.9375       0.630952     0            0
C4       C      0.96875      0.595238     0            0
C1       C      0.9375       0.583334     0.333333     0
C2       C      0.96875      0.619048     0.333333     0
C3       C      0.9375       0.630952     0.333333     0
C4       C      0.96875      0.595238     0.333333     0
C1       C      0.9375       0.583334     0.666667     0
C2       C      0.96875      0.619048     0.666667     0
C3       C      0.9375       0.630952     0.666667     0
C4       C      0.96875      0.595238     0.666667     0
C1       C      0.9375       0.654762     0            0
C2       C      0.96875      0.690476     0            0
C3       C      0.9375       0.702381     0            0
C4       C      0.96875      0.666666     0            0
C1       C      0.9375       0.654762     0.333333     0
C2       C      0.96875      0.690476     0.333333     0
C3       C      0.9375       0.702381     0.333333     0
C4       C      0.96875      0.666666     0.333333     0
C1       C      0.9375       0.654762     0.666667     0
C2       C      0.96875      0.690476     0.666667     0
C3       C      0.9375       0.702381     0.666667     0
C4       C      0.96875      0.666666     0.666667     0
C1       C      0.9375       0.726191     0            0
C2       C      0.96875      0.761905     0            0
C3       C      0.9375       0.773809     0            0
C4       C      0.96875      0.738095     0            0
C1       C      0.9375       0.726191     0.333333     0
C2       C      0.96875      0.761905     0.333333     0
C3       C      0.9375       0.773809     0.333333     0
C4       C      0.96875      0.738095     0.333333     0
C1       C      0.9375       0.726191     0.666667     0
C2       C      0.96875      0.761905     0.666667     0
C3       C      0.9375       0.773809     0.666667     0
C4       C      0.96875      0.738095     0.666667     0
C1       C      0.9375       0.797619     0            0
C2       C      0.96875      0.833334     0            0
C3       C      0.9375       0.845238     0            0
C4       C      0.96875      0.809524     0            0
C1       C      0.9375       0.797619     0.333333     0
C2       C      0.96875      0.833334     0.333333     0
C3       C      0.9375       0.845238     0.333333     0
C4       C      0.96875      0.809524     0.333333     0
C1       C      0.9375       0.797619     0.666667     0
C2       C      0.96875      0.833334     0.666667     0
C3       C      0.9375       0.845238     0.666667     0
C4       C      0.96875      0.809524     0.666667     0
C1       C      0.9375       0.869048     0            0
C2       C      0.96875      0.904762     0            0
C3       C      0.9375       0.916666     0            0
C4       C      0.96875      0.880952     0            0
C1       C      0.9375       0.869048     0.333333     0
C2       C      0.96875      0.904762     0.333333     0
C3       C      0.9375       0.916666     0.333333     0
C4       C      0.96875      0.880952     0.333333     0
C1       C      0.9375       0.869048     0.666667     0
C2       C      0.96875      0.904762     0.666667     0
C3       C      0.9375       0.916666     0.666667     0
C4       C      0.96875      0.880952     0.666667     0
C1       C      0.9375       0.940476     0            0
C2       C      0.96875      0.976191     0            0
C3       C      0.9375       0.988095     0            0
C4       C      0.96875      0.952381     0            0
C1       C      0.9375       0.940476     0.333333     0
C2       C      0.96875      0.976191     0.333333     0
C3       C      0.9375       0.988095     0.333333     0
C4       C      0.96875      0.952381     0.333333     0
C1       C      0.9375       0.940476     0.666667     0
C2       C      0.96875      0.976191     0.666667     0
C3       C      0.9375       0.988095     0.666667     0
C4       C      0.96875      0.952381     0.666667     0


