data_SWNT-11-18

_audit_creation_method RASPA-1.0
_audit_creation_date 2012-2-4
_audit_author_name 'David Dubbeldam'

_cell_length_a    23.199
_cell_length_b    23.199
_cell_length_c    108.023
_cell_angle_alpha 90
_cell_angle_beta  90
_cell_angle_gamma 120
_cell_volume      50348.2

_symmetry_cell_setting          triclinic
_symmetry_space_group_name_Hall 'P 1'
_symmetry_space_group_name_H-M  'P 1'
_symmetry_Int_Tables_number     1

_symmetry_equiv_pos_as_xyz 'x,y,z'

loop_
_atom_site_label
_atom_site_type_symbol
_atom_site_fract_x
_atom_site_fract_y
_atom_site_fract_z
_atom_site_charge
C        C     0.99364      0.7643       0.00444      0
C        C     0.99185      0.78634      0.01663      0
C        C     0.96831      0.87046      0.00807      0
C        C     0.98033      0.84032      0.01844      0
C        C     0.97342      0.85907      0.03062      0
C        C     0.99404      0.74987      0.02699      0
C        C     0.99315      0.7724       0.03918      0
C        C     0.99388      0.75815      0.06173      0
C        C     0.87928      0.96382      0.00133      0
C        C     0.86173      0.97229      0.01352      0
C        C     0.94139      0.91291      0.00989      0
C        C     0.92883      0.92689      0.02207      0
C        C     0.94872      0.90339      0.03244      0
C        C     0.93697      0.91813      0.04462      0
C        C     0.984        0.82788      0.04099      0
C        C     0.97797      0.84726      0.05317      0
C        C     0.98711      0.81505      0.06354      0
C        C     0.98197      0.83504      0.07572      0
C        C     0.77564      0.9929       0.00496      0
C        C     0.81058      0.98804      0.01533      0
C        C     0.7895       0.99146      0.02751      0
C        C     0.88989      0.95773      0.02388      0
C        C     0.87303      0.96706      0.03607      0
C        C     0.90004      0.95111      0.04643      0
C        C     0.88388      0.96128      0.05862      0
C        C     0.95553      0.8934       0.05499      0
C        C     0.9446       0.90889      0.06717      0
C        C     0.9618       0.88295      0.07754      0
C        C     0.95171      0.89917      0.08972      0
C        C     0.98965      0.80185      0.08609      0
C        C     0.9854       0.82243      0.09827      0
C        C     0.99161      0.7883       0.10864      0
C        C     0.98827      0.80944      0.12082      0
C        C     0.58202      0.96294      0.0104       0
C        C     0.71497      0.99272      0.00678      0
C        C     0.69077      0.99006      0.01896      0
C        C     0.73006      0.99367      0.02933      0
C        C     0.70624      0.99192      0.04151      0
C        C     0.82354      0.98512      0.03788      0
C        C     0.80302      0.98945      0.05006      0
C        C     0.83612      0.98164      0.06043      0
C        C     0.81618      0.98686      0.07261      0
C        C     0.90972      0.94395      0.06898      0
C        C     0.89429      0.95496      0.08117      0
C        C     0.91892      0.93628      0.09153      0
C        C     0.90424      0.9481       0.10372      0
C        C     0.96754      0.87206      0.10009      0
C        C     0.95828      0.88898      0.11227      0
C        C     0.97272      0.86072      0.12264      0
C        C     0.96433      0.87834      0.13482      0
C        C     0.993        0.77441      0.13119      0
C        C     0.99056      0.79609      0.14338      0
C        C     0.99382      0.7602       0.15374      0
C        C     0.99228      0.78239      0.16593      0
C        C     0.46897      0.91151      0.00185      0
C        C     0.5124       0.93393      0.01222      0
C        C     0.48585      0.92061      0.0244       0
C        C     0.6245       0.97631      0.02077      0
C        C     0.59864      0.96857      0.03296      0
C        C     0.64077      0.98051      0.04332      0
C        C     0.61513      0.97365      0.05551      0
C        C     0.74487      0.99405      0.05188      0
C        C     0.72147      0.9932       0.06406      0
C        C     0.7594       0.99384      0.07443      0
C        C     0.73644      0.9939       0.08661      0
C        C     0.8483       0.9776       0.08298      0
C        C     0.82898      0.9837       0.09516      0
C        C     0.86008      0.973        0.10553      0
C        C     0.84139      0.97998      0.11771      0
C        C     0.92763      0.9281       0.11409      0
C        C     0.91372      0.94073      0.12627      0
C        C     0.93584      0.91941      0.13664      0
C        C     0.92271      0.93284      0.14882      0
C        C     0.97736      0.84897      0.14519      0
C        C     0.96983      0.86725      0.15737      0
C        C     0.98143      0.83681      0.16774      0
C        C     0.97478      0.85574      0.17992      0
C        C     0.99342      0.76836      0.18848      0
C        C     0.99399      0.75402      0.21103      0
C        C     0.2684       0.76214      0.00729      0
C        C     0.39966      0.86877      0.00367      0
C        C     0.37381      0.85058      0.01585      0
C        C     0.41626      0.8798       0.02622      0
C        C     0.39022      0.86228      0.0384       0
C        C     0.52928      0.94175      0.03477      0
C        C     0.50275      0.92923      0.04695      0
C        C     0.54613      0.94906      0.05732      0
C        C     0.51964      0.93735      0.0695       0
C        C     0.65689      0.98416      0.06587      0
C        C     0.63149      0.97818      0.07806      0
C        C     0.67281      0.98724      0.08842      0
C        C     0.6477       0.98215      0.10061      0
C        C     0.77363      0.99306      0.09698      0
C        C     0.75114      0.99403      0.10916      0
C        C     0.78754      0.9917       0.11953      0
C        C     0.76554      0.99358      0.13171      0
C        C     0.87144      0.96784      0.12808      0
C        C     0.8534       0.97569      0.14026      0
C        C     0.88236      0.96214      0.15063      0
C        C     0.865        0.97085      0.16282      0
C        C     0.94354      0.91024      0.15919      0
C        C     0.93121      0.92444      0.17137      0
C        C     0.95072      0.90059      0.18174      0
C        C     0.9392       0.91554      0.19392      0
C        C     0.98495      0.82425      0.19029      0
C        C     0.97917      0.84381      0.20247      0
C        C     0.98789      0.81131      0.21284      0
C        C     0.98301      0.83147      0.22502      0
C        C     0.20909      0.70037      0.00911      0
C        C     0.18806      0.67582      0.02129      0
C        C     0.30762      0.79791      0.01766      0
C        C     0.28346      0.7763       0.02984      0
C        C     0.3233       0.81121      0.04021      0
C        C     0.29877      0.79015      0.0524       0
C        C     0.43295      0.89038      0.04877      0
C        C     0.40676      0.87355      0.06095      0
C        C     0.44973      0.90051      0.07132      0
C        C     0.4234       0.88439      0.0835       0
C        C     0.56292      0.95584      0.07987      0
C        C     0.53651      0.94495      0.09205      0
C        C     0.57964      0.96209      0.10242      0
C        C     0.55334      0.95203      0.1146       0
C        C     0.68854      0.98975      0.11097      0
C        C     0.66374      0.98555      0.12316      0
C        C     0.70404      0.99169      0.13353      0
C        C     0.67958      0.98839      0.14571      0
C        C     0.80111      0.98977      0.14208      0
C        C     0.77963      0.99255      0.15426      0
C        C     0.81432      0.98726      0.16463      0
C        C     0.79339      0.99095      0.17681      0
C        C     0.89283      0.95589      0.17318      0
C        C     0.87617      0.96546      0.18537      0
C        C     0.90285      0.94912      0.19573      0
C        C     0.8869       0.95953      0.20792      0
C        C     0.95738      0.89047      0.20429      0
C        C     0.94668      0.90616      0.21647      0
C        C     0.9635       0.87989      0.22684      0
C        C     0.95364      0.89631      0.23902      0
C        C     0.99027      0.79801      0.23539      0
C        C     0.98628      0.81875      0.24757      0
C        C     0.99207      0.78437      0.25794      0
C        C     0.98898      0.80566      0.27012      0
C        C     0.05055      0.45293      0.00418      0
C        C     0.12583      0.59232      0.00056      0
C        C     0.10904      0.56611      0.01274      0
C        C     0.13708      0.60886      0.02311      0
C        C     0.1196       0.58282      0.03529      0
C        C     0.22292      0.7157       0.03166      0
C        C     0.20134      0.69151      0.04384      0
C        C     0.23707      0.73077      0.05421      0
C        C     0.21498      0.70697      0.06639      0
C        C     0.33918      0.82415      0.06276      0
C        C     0.31431      0.80365      0.07495      0
C        C     0.35524      0.83671      0.08531      0
C        C     0.33008      0.8168       0.0975       0
C        C     0.46657      0.91017      0.09387      0
C        C     0.44014      0.89478      0.10605      0
C        C     0.48344      0.91934      0.11642      0
C        C     0.45694      0.9047       0.1286       0
C        C     0.59627      0.9678       0.12497      0
C        C     0.5701       0.95858      0.13715      0
C        C     0.61278      0.97296      0.14752      0
C        C     0.58678      0.9646       0.1597       0
C        C     0.71931      0.99305      0.15608      0
C        C     0.69521      0.99065      0.16826      0
C        C     0.73432      0.99384      0.17863      0
C        C     0.71062      0.99235      0.19081      0
C        C     0.82717      0.98419      0.18718      0
C        C     0.80681      0.98877      0.19936      0
C        C     0.83964      0.98055      0.20973      0
C        C     0.81988      0.98602      0.22191      0
C        C     0.91239      0.94181      0.21828      0
C        C     0.89718      0.95305      0.23047      0
C        C     0.92146      0.93399      0.24083      0
C        C     0.907        0.94605      0.25302      0
C        C     0.96908      0.86886      0.24939      0
C        C     0.96007      0.88599      0.26157      0
C        C     0.9741       0.85741      0.27194      0
C        C     0.96595      0.87522      0.28412      0
C        C     0.99329      0.77038      0.28049      0
C        C     0.99111      0.79221      0.29268      0
C        C     0.99394      0.75609      0.30304      0
C        C     0.99266      0.77841      0.31523      0
C        C     0.02608      0.38395      0.006        0
C        C     0.01927      0.35832      0.01818      0
C        C     0.0703       0.49631      0.01455      0
C        C     0.05783      0.46978      0.02673      0
C        C     0.07889      0.51321      0.0371       0
C        C     0.06562      0.48666      0.04928      0
C        C     0.14876      0.62528      0.04566      0
C        C     0.1306       0.59942      0.05784      0
C        C     0.16085      0.64155      0.06821      0
C        C     0.14204      0.61591      0.08039      0
C        C     0.25152      0.74557      0.07676      0
C        C     0.22894      0.72219      0.08894      0
C        C     0.26627      0.76009      0.09931      0
C        C     0.24322      0.73715      0.11149      0
C        C     0.37148      0.84887      0.10786      0
C        C     0.34604      0.82958      0.12005      0
C        C     0.38787      0.86063      0.13042      0
C        C     0.36218      0.84197      0.1426       0
C        C     0.50033      0.92803      0.13897      0
C        C     0.47379      0.91416      0.15115      0
C        C     0.51723      0.93622      0.16152      0
C        C     0.49068      0.92313      0.1737       0
C        C     0.62916      0.97756      0.17007      0
C        C     0.60336      0.97008      0.18226      0
C        C     0.6454       0.98161      0.19262      0
C        C     0.61982      0.975        0.20481      0
C        C     0.74906      0.99405      0.20118      0
C        C     0.72578      0.99346      0.21336      0
C        C     0.7635       0.99368      0.22373      0
C        C     0.74067      0.994        0.23591      0
C        C     0.85171      0.97634      0.23228      0
C        C     0.83256      0.9827       0.24446      0
C        C     0.86337      0.97158      0.25483      0
C        C     0.84486      0.97881      0.26701      0
C        C     0.93003      0.92567      0.26339      0
C        C     0.91634      0.93853      0.27557      0
C        C     0.93809      0.91684      0.28594      0
C        C     0.92519      0.93049      0.29812      0
C        C     0.97858      0.84554      0.29449      0
C        C     0.9713       0.86401      0.30667      0
C        C     0.98249      0.83326      0.31704      0
C        C     0.97609      0.85237      0.32922      0
C        C     0.99364      0.7643       0.33778      0
C        C     0.99404      0.74987      0.36033      0
C        C     0.01857      0.16319      0.00107      0
C        C     0.00595      0.25431      0.00963      0
C        C     0.00799      0.29291      0.02         0
C        C     0.00629      0.26911      0.03218      0
C        C     0.03114      0.40044      0.02855      0
C        C     0.02345      0.37459      0.04073      0
C        C     0.03673      0.41705      0.0511       0
C        C     0.02818      0.39101      0.06328      0
C        C     0.08797      0.53009      0.05965      0
C        C     0.07392      0.50355      0.07184      0
C        C     0.09754      0.54693      0.0822       0
C        C     0.08273      0.52044      0.09439      0
C        C     0.17333      0.65765      0.09076      0
C        C     0.15389      0.63227      0.10294      0
C        C     0.18619      0.67357      0.11331      0
C        C     0.16615      0.64847      0.12549      0
C        C     0.28129      0.7743       0.12186      0
C        C     0.25781      0.75183      0.13404      0
C        C     0.29657      0.78819      0.14441      0
C        C     0.27267      0.76622      0.15659      0
C        C     0.40439      0.87197      0.15297      0
C        C     0.37849      0.85396      0.16515      0
C        C     0.42102      0.88287      0.17552      0
C        C     0.39493      0.86554      0.1877       0
C        C     0.5341       0.94389      0.18407      0
C        C     0.50758      0.9316       0.19625      0
C        C     0.55094      0.95105      0.20662      0
C        C     0.52446      0.93957      0.2188       0
C        C     0.66146      0.9851       0.21517      0
C        C     0.63614      0.97937      0.22736      0
C        C     0.67733      0.98802      0.23772      0
C        C     0.6523       0.98318      0.24991      0
C        C     0.77764      0.99273      0.24628      0
C        C     0.75528      0.99396      0.25846      0
C        C     0.79145      0.99121      0.26883      0
C        C     0.7696       0.99334      0.28101      0
C        C     0.8746       0.96627      0.27738      0
C        C     0.85676      0.97437      0.28956      0
C        C     0.8854       0.96041      0.29993      0
C        C     0.86824      0.96937      0.31212      0
C        C     0.94565      0.90753      0.30849      0
C        C     0.93354      0.92195      0.32067      0
C        C     0.95268      0.89774      0.33104      0
C        C     0.94139      0.91291      0.34322      0
C        C     0.98585      0.82059      0.33959      0
C        C     0.98033      0.84032      0.35177      0
C        C     0.98863      0.80755      0.36214      0
C        C     0.984        0.82788      0.37432      0
C        C     0.03906      0.11552      0.00289      0
C        C     0.04928      0.09941      0.01507      0
C        C     0.01068      0.19624      0.01144      0
C        C     0.01505      0.17575      0.02362      0
C        C     0.00863      0.20974      0.03399      0
C        C     0.01211      0.18869      0.04617      0
C        C     0.00982      0.30837      0.04255      0
C        C     0.00721      0.28418      0.05473      0
C        C     0.01221      0.32405      0.0651       0
C        C     0.0087       0.2995       0.07728      0
C        C     0.04288      0.43375      0.07365      0
C        C     0.03347      0.40755      0.08583      0
C        C     0.04955      0.45053      0.0962       0
C        C     0.0393       0.4242       0.10838      0
C        C     0.10757      0.56372      0.10475      0
C        C     0.09201      0.53731      0.11694      0
C        C     0.11806      0.58044      0.1273       0
C        C     0.10178      0.55414      0.13949      0
C        C     0.19942      0.68928      0.13586      0
C        C     0.1788       0.66449      0.14804      0
C        C     0.21301      0.70478      0.15841      0
C        C     0.19182      0.68033      0.17059      0
C        C     0.31208      0.80174      0.16696      0
C        C     0.28781      0.78029      0.17914      0
C        C     0.32781      0.81494      0.18951      0
C        C     0.30319      0.79404      0.2017       0
C        C     0.43774      0.89332      0.19807      0
C        C     0.4115       0.87669      0.21025      0
C        C     0.45454      0.90332      0.22062      0
C        C     0.42817      0.8874       0.2328       0
C        C     0.56771      0.95768      0.22917      0
C        C     0.54132      0.94703      0.24135      0
C        C     0.5844       0.96378      0.25172      0
C        C     0.55813      0.95396      0.2639       0
C        C     0.69299      0.99036      0.26028      0
C        C     0.66828      0.98642      0.27246      0
C        C     0.70843      0.99214      0.28283      0
C        C     0.68407      0.98909      0.29501      0
C        C     0.80492      0.98911      0.29138      0
C        C     0.7836       0.99215      0.30356      0
C        C     0.81803      0.98644      0.31393      0
C        C     0.79726      0.99038      0.32611      0
C        C     0.89574      0.95401      0.32248      0
C        C     0.87928      0.96382      0.33467      0
C        C     0.90563      0.94708      0.34503      0
C        C     0.88989      0.95773      0.35722      0
C        C     0.95918      0.88749      0.35359      0
C        C     0.94872      0.90339      0.36577      0
C        C     0.96515      0.87678      0.37614      0
C        C     0.95553      0.8934       0.38832      0
C        C     0.99084      0.79415      0.38469      0
C        C     0.98711      0.81505      0.39687      0
C        C     0.99248      0.7804       0.40724      0
C        C     0.98965      0.80185      0.41942      0
C        C     0.10717      0.04411      0.00652      0
C        C     0.08237      0.06259      0.01688      0
C        C     0.09715      0.05088      0.02907      0
C        C     0.03325      0.12636      0.02544      0
C        C     0.04262      0.10953      0.03762      0
C        C     0.02798      0.13763      0.04799      0
C        C     0.0365       0.12011      0.06017      0
C        C     0.00716      0.22358      0.05654      0
C        C     0.00973      0.20199      0.06873      0
C        C     0.00627      0.23775      0.07909      0
C        C     0.00793      0.21563      0.09128      0
C        C     0.01518      0.33994      0.08765      0
C        C     0.01077      0.31506      0.09983      0
C        C     0.01872      0.35601      0.1102       0
C        C     0.01342      0.33083      0.12238      0
C        C     0.05676      0.46737      0.11875      0
C        C     0.04567      0.44093      0.13093      0
C        C     0.06448      0.48424      0.1413       0
C        C     0.05258      0.45774      0.15348      0
C        C     0.129        0.59706      0.14986      0
C        C     0.11201      0.5709       0.16204      0
C        C     0.14038      0.61357      0.17241      0
C        C     0.1227       0.58757      0.18459      0
C        C     0.22693      0.72003      0.18096      0
C        C     0.2052       0.69595      0.19314      0
C        C     0.24117      0.73503      0.20351      0
C        C     0.21893      0.71134      0.21569      0
C        C     0.34375      0.82778      0.21206      0
C        C     0.3188       0.80745      0.22425      0
C        C     0.35987      0.84022      0.23461      0
C        C     0.33462      0.82049      0.2468       0
C        C     0.47138      0.91284      0.24317      0
C        C     0.44493      0.89766      0.25535      0
C        C     0.48827      0.92188      0.26572      0
C        C     0.46175      0.90745      0.2779       0
C        C     0.601        0.96933      0.27427      0
C        C     0.57487      0.96036      0.28645      0
C        C     0.61748      0.97433      0.29682      0
C        C     0.59153      0.96622      0.30901      0
C        C     0.72363      0.99334      0.30538      0
C        C     0.69964      0.9912       0.31756      0
C        C     0.73856      0.99396      0.32793      0
C        C     0.71497      0.99272      0.34011      0
C        C     0.83078      0.9832       0.33648      0
C        C     0.81058      0.98804      0.34866      0
C        C     0.84313      0.9794       0.35903      0
C        C     0.82354      0.98512      0.37121      0
C        C     0.91503      0.93963      0.36758      0
C        C     0.90004      0.95111      0.37977      0
C        C     0.92396      0.93167      0.39014      0
C        C     0.90972      0.94395      0.40232      0
C        C     0.97057      0.86563      0.39869      0
C        C     0.9618       0.88295      0.41087      0
C        C     0.97544      0.85406      0.42124      0
C        C     0.96754      0.87206      0.43342      0
C        C     0.99354      0.76633      0.42979      0
C        C     0.99161      0.7883       0.44198      0
C        C     0.99402      0.75195      0.45234      0
C        C     0.993        0.77441      0.46453      0
C        C     0.26568      0.00616      0.01196      0
C        C     0.15341      0.02179      0.00833      0
C        C     0.17283      0.01581      0.02051      0
C        C     0.14158      0.02631      0.03088      0
C        C     0.16036      0.01945      0.04306      0
C        C     0.07359      0.0707       0.03944      0
C        C     0.08761      0.05819      0.05162      0
C        C     0.0653       0.07931      0.06199      0
C        C     0.07854      0.06601      0.07417      0
C        C     0.02327      0.14933      0.07054      0
C        C     0.03092      0.13114      0.08272      0
C        C     0.01911      0.16143      0.09309      0
C        C     0.0259       0.14259      0.10527      0
C        C     0.00595      0.25222      0.10164      0
C        C     0.00671      0.22962      0.11383      0
C        C     0.00621      0.26698      0.12419      0
C        C     0.00606      0.24391      0.13638      0
C        C     0.02282      0.37226      0.13275      0
C        C     0.01663      0.34681      0.14493      0
C        C     0.02747      0.38865      0.1553       0
C        C     0.0204       0.36296      0.16748      0
C        C     0.07271      0.50114      0.16385      0
C        C     0.06         0.4746       0.17603      0
C        C     0.08144      0.51803      0.1864       0
C        C     0.06794      0.49148      0.19859      0
C        C     0.15217      0.62994      0.19496      0
C        C     0.13383      0.60415      0.20714      0
C        C     0.16437      0.64616      0.21751      0
C        C     0.14538      0.6206       0.22969      0
C        C     0.25571      0.74975      0.22606      0
C        C     0.23299      0.72649      0.23824      0
C        C     0.27053      0.76418      0.24861      0
C        C     0.24736      0.74137      0.26079      0
C        C     0.37615      0.85228      0.25716      0
C        C     0.35064      0.83316      0.26935      0
C        C     0.39258      0.86391      0.27972      0
C        C     0.36683      0.84544      0.2919       0
C        C     0.50516      0.93042      0.28827      0
C        C     0.47862      0.91677      0.30045      0
C        C     0.52205      0.93846      0.31082      0
C        C     0.49551      0.9256       0.323        0
C        C     0.63382      0.97878      0.31937      0
C        C     0.60808      0.97154      0.33156      0
C        C     0.65         0.98267      0.34192      0
C        C     0.6245       0.97631      0.35411      0
C        C     0.75321      0.994        0.35048      0
C        C     0.73006      0.99367      0.36266      0
C        C     0.76757      0.99347      0.37303      0
C        C     0.74487      0.99405      0.38521      0
C        C     0.85508      0.97504      0.38158      0
C        C     0.83612      0.98164      0.39376      0
C        C     0.86662      0.97012      0.40413      0
C        C     0.8483       0.9776       0.41631      0
C        C     0.93238      0.9232       0.41269      0
C        C     0.91892      0.93628      0.42487      0
C        C     0.9403       0.91423      0.43524      0
C        C     0.92763      0.9281       0.44742      0
C        C     0.97976      0.84207      0.44379      0
C        C     0.97272      0.86072      0.45597      0
C        C     0.98351      0.82968      0.46634      0
C        C     0.97736      0.84897      0.47852      0
C        C     0.99382      0.7602       0.48708      0
C        C     0.37084      0.02244      0.00341      0
C        C     0.32945      0.01316      0.01377      0
C        C     0.3546       0.01839      0.02596      0
C        C     0.22838      0.00679      0.02233      0
C        C     0.25094      0.00595      0.03451      0
C        C     0.21443      0.00807      0.04488      0
C        C     0.2365       0.00632      0.05706      0
C        C     0.13016      0.03139      0.05343      0
C        C     0.14829      0.02366      0.06561      0
C        C     0.11917      0.03702      0.07598      0
C        C     0.13663      0.02842      0.08817      0
C        C     0.05753      0.08842      0.08454      0
C        C     0.06997      0.07433      0.09672      0
C        C     0.05027      0.098        0.10709      0
C        C     0.06191      0.08316      0.11927      0
C        C     0.01552      0.17393      0.11564      0
C        C     0.02142      0.15446      0.12782      0
C        C     0.01249      0.18681      0.13819      0
C        C     0.01751      0.16674      0.15037      0
C        C     0.00704      0.28201      0.14674      0
C        C     0.00599      0.25851      0.15893      0
C        C     0.00846      0.2973       0.1693       0
C        C     0.00649      0.27339      0.18148      0
C        C     0.03268      0.40518      0.17785      0
C        C     0.02474      0.37927      0.19003      0
C        C     0.03843      0.42181      0.2004       0
C        C     0.02964      0.39572      0.21258      0
C        C     0.09066      0.5349       0.20895      0
C        C     0.07639      0.50838      0.22114      0
C        C     0.10036      0.55174      0.2315       0
C        C     0.08533      0.52527      0.24369      0
C        C     0.17697      0.66222      0.24006      0
C        C     0.15735      0.63691      0.25224      0
C        C     0.18994      0.67808      0.26261      0
C        C     0.16972      0.65307      0.27479      0
C        C     0.28563      0.7783       0.27116      0
C        C     0.26203      0.75597      0.28334      0
C        C     0.30097      0.7921       0.29371      0
C        C     0.27697      0.77027      0.30589      0
C        C     0.40913      0.87513      0.30227      0
C        C     0.38317      0.85731      0.31445      0
C        C     0.42579      0.8859       0.32482      0
C        C     0.39966      0.86877      0.337        0
C        C     0.53892      0.94599      0.33337      0
C        C     0.5124       0.93393      0.34555      0
C        C     0.55573      0.953        0.35592      0
C        C     0.52928      0.94175      0.3681       0
C        C     0.66601      0.98599      0.36447      0
C        C     0.64077      0.98051      0.37666      0
C        C     0.68183      0.98875      0.38702      0
C        C     0.65689      0.98416      0.39921      0
C        C     0.78162      0.99236      0.39558      0
C        C     0.7594       0.99384      0.40776      0
C        C     0.79533      0.99067      0.41813      0
C        C     0.77363      0.99306      0.43031      0
C        C     0.87773      0.96465      0.42668      0
C        C     0.86008      0.973        0.43887      0
C        C     0.8884       0.95863      0.44923      0
C        C     0.87144      0.96784      0.46142      0
C        C     0.94771      0.90478      0.45779      0
C        C     0.93584      0.91941      0.46997      0
C        C     0.95459      0.89486      0.48034      0
C        C     0.94354      0.91024      0.49252      0
C        C     0.9867       0.8169       0.48889      0
C        C     0.98143      0.83681      0.50107      0
C        C     0.98932      0.80376      0.51144      0
C        C     0.98495      0.82425      0.52362      0
C        C     0.57898      0.11713      0.00885      0
C        C     0.43947      0.0451       0.00522      0
C        C     0.4659       0.05611      0.0174       0
C        C     0.42274      0.03877      0.02777      0
C        C     0.44906      0.04895      0.03995      0
C        C     0.31369      0.01057      0.03632      0
C        C     0.33854      0.0149       0.04851      0
C        C     0.29816      0.00855      0.05888      0
C        C     0.32267      0.01198      0.07106      0
C        C     0.20081      0.00992      0.06743      0
C        C     0.22236      0.00727      0.07961      0
C        C     0.18754      0.01234      0.08998      0
C        C     0.20855      0.00879      0.10216      0
C        C     0.10863      0.04318      0.09853      0
C        C     0.1254       0.03373      0.11072      0
C        C     0.09855      0.04988      0.12108      0
C        C     0.1146       0.03959      0.13327      0
C        C     0.04354      0.10806      0.12964      0
C        C     0.05435      0.09247      0.14182      0
C        C     0.03734      0.11858      0.15219      0
C        C     0.04732      0.10226      0.16437      0
C        C     0.01004      0.20006      0.16074      0
C        C     0.01415      0.17941      0.17292      0
C        C     0.00815      0.21366      0.18329      0
C        C     0.01137      0.19245      0.19547      0
C        C     0.01044      0.31282      0.19185      0
C        C     0.00758      0.28853      0.20403      0
C        C     0.013        0.32857      0.2144       0
C        C     0.00924      0.30392      0.22658      0
C        C     0.04473      0.43854      0.22295      0
C        C     0.03508      0.41229      0.23513      0
C        C     0.05156      0.45534      0.2455       0
C        C     0.04107      0.42897      0.25768      0
C        C     0.11052      0.56851      0.25405      0
C        C     0.09476      0.54212      0.26624      0
C        C     0.12114      0.5852       0.2766       0
C        C     0.10466      0.55893      0.28879      0
C        C     0.20327      0.69373      0.28516      0
C        C     0.18248      0.66904      0.29734      0
C        C     0.21695      0.70916      0.30771      0
C        C     0.19561      0.68481      0.31989      0
C        C     0.31655      0.80555      0.31626      0
C        C     0.29218      0.78426      0.32845      0
C        C     0.33235      0.81865      0.33881      0
C        C     0.30762      0.79791      0.351        0
C        C     0.44253      0.89623      0.34737      0
C        C     0.41626      0.8798       0.35955      0
C        C     0.45934      0.90608      0.36992      0
C        C     0.43295      0.89038      0.3821       0
C        C     0.57249      0.95948      0.37847      0
C        C     0.54613      0.94906      0.39065      0
C        C     0.58916      0.96542      0.40102      0
C        C     0.56292      0.95584      0.4132       0
C        C     0.69743      0.99093      0.40958      0
C        C     0.67281      0.98724      0.42176      0
C        C     0.7128       0.99254      0.43213      0
C        C     0.68854      0.98975      0.44431      0
C        C     0.8087       0.98841      0.44068      0
C        C     0.78754      0.9917       0.45286      0
C        C     0.82171      0.98558      0.46323      0
C        C     0.80111      0.98977      0.47541      0
C        C     0.89862      0.95209      0.47178      0
C        C     0.88236      0.96214      0.48397      0
C        C     0.90836      0.94501      0.49433      0
C        C     0.89283      0.95589      0.50652      0
C        C     0.96094      0.88448      0.50289      0
C        C     0.95072      0.90059      0.51507      0
C        C     0.96675      0.87364      0.52544      0
C        C     0.95738      0.89047      0.53762      0
C        C     0.99137      0.79026      0.53399      0
C        C     0.98789      0.81131      0.54617      0
C        C     0.99284      0.77642      0.55654      0
C        C     0.99027      0.79801      0.56873      0
C        C     0.68792      0.19826      0.0003       0
C        C     0.64706      0.16506      0.01066      0
C        C     0.67219      0.18506      0.02285      0
C        C     0.53584      0.09119      0.01922      0
C        C     0.56226      0.10668      0.0314       0
C        C     0.51897      0.08194      0.04177      0
C        C     0.54546      0.09668      0.05395      0
C        C     0.4061       0.03299      0.05032      0
C        C     0.43229      0.04232      0.0625       0
C        C     0.38957      0.02775      0.07287      0
C        C     0.4156       0.03622      0.08505      0
C        C     0.28286      0.00711      0.08143      0
C        C     0.30701      0.00964      0.09361      0
C        C     0.26781      0.00624      0.10398      0
C        C     0.29157      0.00786      0.11616      0
C        C     0.17464      0.01534      0.11253      0
C        C     0.19508      0.01089      0.12471      0
C        C     0.16212      0.0189       0.13508      0
C        C     0.18197      0.01356      0.14726      0
C        C     0.08894      0.05711      0.14363      0
C        C     0.10426      0.04599      0.15582      0
C        C     0.07981      0.06486      0.16618      0
C        C     0.09437      0.05292      0.17837      0
C        C     0.03169      0.12954      0.17474      0
C        C     0.04082      0.11251      0.18692      0
C        C     0.02658      0.14093      0.19729      0
C        C     0.03485      0.12322      0.20947      0
C        C     0.00685      0.2276       0.20584      0
C        C     0.00916      0.20585      0.21803      0
C        C     0.00612      0.24185      0.22839      0
C        C     0.00752      0.2196       0.24058      0
C        C     0.01613      0.34451      0.23695      0
C        C     0.01147      0.31955      0.24913      0
C        C     0.01983      0.36064      0.2595       0
C        C     0.01428      0.33538      0.27168      0
C        C     0.05891      0.47219      0.26805      0
C        C     0.04759      0.44573      0.28023      0
C        C     0.06678      0.48907      0.2906       0
C        C     0.05464      0.46255      0.30278      0
C        C     0.13221      0.60179      0.29916      0
C        C     0.11502      0.57567      0.31134      0
C        C     0.1437       0.61826      0.32171      0
C        C     0.12583      0.59232      0.33389      0
C        C     0.23096      0.72434      0.33026      0
C        C     0.20909      0.70037      0.34244      0
C        C     0.24529      0.73926      0.35281      0
C        C     0.22292      0.7157       0.36499      0
C        C     0.34834      0.83137      0.36136      0
C        C     0.3233       0.81121      0.37355      0
C        C     0.3645       0.84371      0.38391      0
C        C     0.33918      0.82415      0.3961       0
C        C     0.47621      0.91547      0.39247      0
C        C     0.44973      0.90051      0.40465      0
C        C     0.49309      0.92437      0.41502      0
C        C     0.46657      0.91017      0.4272       0
C        C     0.60572      0.97081      0.42357      0
C        C     0.57964      0.96209      0.43575      0
C        C     0.62216      0.97566      0.44612      0
C        C     0.59627      0.9678       0.45831      0
C        C     0.72792      0.99357      0.45468      0
C        C     0.70404      0.99169      0.46686      0
C        C     0.74278      0.99403      0.47723      0
C        C     0.71931      0.99305      0.48941      0
C        C     0.83435      0.98218      0.48578      0
C        C     0.81432      0.98726      0.49796      0
C        C     0.84659      0.97821      0.50833      0
C        C     0.82717      0.98419      0.52051      0
C        C     0.91763      0.93741      0.51688      0
C        C     0.90285      0.94912      0.52907      0
C        C     0.92641      0.9293       0.53944      0
C        C     0.91239      0.94181      0.55162      0
C        C     0.97202      0.86237      0.54799      0
C        C     0.9635       0.87989      0.56017      0
C        C     0.97673      0.85067      0.57054      0
C        C     0.96908      0.86886      0.58272      0
C        C     0.99373      0.76225      0.57909      0
C        C     0.99207      0.78437      0.59128      0
C        C     0.99405      0.74778      0.60164      0
C        C     0.99329      0.77038      0.61383      0
C        C     0.85962      0.38643      0.00574      0
C        C     0.75056      0.25652      0.00211      0
C        C     0.77307      0.27997      0.01429      0
C        C     0.73585      0.24197      0.02466      0
C        C     0.75883      0.26497      0.03684      0
C        C     0.63085      0.15284      0.03321      0
C        C     0.65625      0.17222      0.0454       0
C        C     0.61448      0.14102      0.05577      0
C        C     0.64013      0.15978      0.06795      0
C        C     0.50208      0.07318      0.06432      0
C        C     0.52862      0.08716      0.0765       0
C        C     0.48518      0.06492      0.08687      0
C        C     0.51173      0.07812      0.09905      0
C        C     0.37317      0.02306      0.09542      0
C        C     0.399        0.03067      0.10761      0
C        C     0.35691      0.01893      0.11797      0
C        C     0.38252      0.02567      0.13016      0
C        C     0.25303      0.00595      0.12653      0
C        C     0.27637      0.00666      0.13871      0
C        C     0.23854      0.00623      0.14908      0
C        C     0.26144      0.00604      0.16126      0
C        C     0.14999      0.02302      0.15763      0
C        C     0.16922      0.0168       0.16981      0
C        C     0.13827      0.02771      0.18018      0
C        C     0.15687      0.0206       0.19236      0
C        C     0.07117      0.07311      0.18874      0
C        C     0.08497      0.06037      0.20092      0
C        C     0.06303      0.08187      0.21129      0
C        C     0.07604      0.06833      0.22347      0
C        C     0.02203      0.15274      0.21984      0
C        C     0.02943      0.13437      0.23202      0
C        C     0.01803      0.16496      0.24239      0
C        C     0.02456      0.14594      0.25457      0
C        C     0.00596      0.25641      0.25094      0
C        C     0.00646      0.23367      0.26313      0
C        C     0.00639      0.27125      0.27349      0
C        C     0.00598      0.24805      0.28568      0
C        C     0.02409      0.37693      0.28205      0
C        C     0.01765      0.3514       0.29423      0
C        C     0.0289       0.39336      0.3046       0
C        C     0.02159      0.3676       0.31678      0
C        C     0.07515      0.50597      0.31315      0
C        C     0.06222      0.47942      0.32533      0
C        C     0.08402      0.52286      0.3357       0
C        C     0.0703       0.49631      0.34789      0
C        C     0.15562      0.63459      0.34426      0
C        C     0.13708      0.60886      0.35644      0
C        C     0.16793      0.65077      0.36681      0
C        C     0.14876      0.62528      0.37899      0
C        C     0.25991      0.7539       0.37536      0
C        C     0.23707      0.73077      0.38754      0
C        C     0.27482      0.76825      0.39791      0
C        C     0.25152      0.74557      0.41009      0
C        C     0.38083      0.85564      0.40646      0
C        C     0.35524      0.83671      0.41865      0
C        C     0.39729      0.86716      0.42902      0
C        C     0.37148      0.84887      0.4412       0
C        C     0.50999      0.93277      0.43757      0
C        C     0.48344      0.91934      0.44975      0
C        C     0.52687      0.94067      0.46012      0
C        C     0.50033      0.92803      0.4723       0
C        C     0.63846      0.97995      0.46867      0
C        C     0.61278      0.97296      0.48086      0
C        C     0.6546       0.98367      0.49122      0
C        C     0.62916      0.97756      0.50341      0
C        C     0.75735      0.99391      0.49978      0
C        C     0.73432      0.99384      0.51196      0
C        C     0.77162      0.99321      0.52233      0
C        C     0.74906      0.99405      0.53451      0
C        C     0.85842      0.97369      0.53088      0
C        C     0.83964      0.98055      0.54306      0
C        C     0.86984      0.96861      0.55343      0
C        C     0.85171      0.97634      0.56561      0
C        C     0.9347       0.92069      0.56199      0
C        C     0.92146      0.93399      0.57417      0
C        C     0.94247      0.91158      0.58454      0
C        C     0.93003      0.92567      0.59672      0
C        C     0.98089      0.83857      0.59309      0
C        C     0.9741       0.85741      0.60527      0
C        C     0.98448      0.82607      0.61564      0
C        C     0.97858      0.84554      0.62782      0
C        C     0.99394      0.75609      0.63638      0
C        C     0.90386      0.45547      0.00755      0
C        C     0.91856      0.48197      0.01974      0
C        C     0.82848      0.34464      0.01611      0
C        C     0.84783      0.37006      0.02829      0
C        C     0.81567      0.3287       0.03866      0
C        C     0.83563      0.35384      0.05084      0
C        C     0.72087      0.22771      0.04721      0
C        C     0.74429      0.25025      0.05939      0
C        C     0.70563      0.21377      0.06976      0
C        C     0.72947      0.23582      0.08194      0
C        C     0.59798      0.12963      0.07832      0
C        C     0.62385      0.14772      0.0905       0
C        C     0.58136      0.11866      0.10087      0
C        C     0.60742      0.13609      0.11305      0
C        C     0.46831      0.05717      0.10942      0
C        C     0.49484      0.06958      0.1216       0
C        C     0.45147      0.04994      0.13197      0
C        C     0.47795      0.06154      0.14415      0
C        C     0.34083      0.01536      0.14052      0
C        C     0.36618      0.02122      0.15271      0
C        C     0.32493      0.01236      0.16307      0
C        C     0.35         0.01733      0.17526      0
C        C     0.22436      0.0071       0.17163      0
C        C     0.24679      0.006        0.18381      0
C        C     0.2105       0.00854      0.19418      0
C        C     0.23243      0.00653      0.20636      0
C        C     0.12697      0.03294      0.20273      0
C        C     0.14492      0.02496      0.21491      0
C        C     0.11612      0.03872      0.22528      0
C        C     0.13338      0.02988      0.23747      0
C        C     0.0554       0.09111      0.23384      0
C        C     0.06762      0.0768       0.24602      0
C        C     0.04829      0.10083      0.25639      0
C        C     0.0597       0.08577      0.26857      0
C        C     0.0146       0.17757      0.26494      0
C        C     0.02024      0.15793      0.27712      0
C        C     0.01173      0.19056      0.28749      0
C        C     0.01649      0.17032      0.29967      0
C        C     0.00739      0.28635      0.29604      0
C        C     0.00607      0.26273      0.30823      0
C        C     0.00897      0.30171      0.3186       0
C        C     0.00674      0.27769      0.33078      0
C        C     0.03427      0.40992      0.32715      0
C        C     0.02608      0.38395      0.33933      0
C        C     0.04018      0.42658      0.3497       0
C        C     0.03114      0.40044      0.36188      0
C        C     0.09338      0.53972      0.35825      0
C        C     0.07889      0.51321      0.37044      0
C        C     0.10321      0.55653      0.3808       0
C        C     0.08797      0.53009      0.39299      0
C        C     0.18063      0.66677      0.38936      0
C        C     0.16085      0.64155      0.40154      0
C        C     0.19371      0.68257      0.41191      0
C        C     0.17333      0.65765      0.42409      0
C        C     0.28999      0.78228      0.42046      0
C        C     0.26627      0.76009      0.43264      0
C        C     0.3054       0.79598      0.44301      0
C        C     0.28129      0.7743       0.45519      0
C        C     0.41388      0.87825      0.45157      0
C        C     0.38787      0.86063      0.46375      0
C        C     0.43056      0.8889       0.47412      0
C        C     0.40439      0.87197      0.4863       0
C        C     0.54373      0.94805      0.48267      0
C        C     0.51723      0.93622      0.49485      0
C        C     0.56053      0.9549       0.50522      0
C        C     0.5341       0.94389      0.5174       0
C        C     0.67055      0.98684      0.51377      0
C        C     0.6454       0.98161      0.52596      0
C        C     0.68631      0.98943      0.53632      0
C        C     0.66146      0.9851       0.54851      0
C        C     0.78557      0.99193      0.54488      0
C        C     0.7635       0.99368      0.55706      0
C        C     0.79919      0.99008      0.56743      0
C        C     0.77764      0.99273      0.57961      0
C        C     0.88083      0.96298      0.57598      0
C        C     0.86337      0.97158      0.58817      0
C        C     0.89137      0.95682      0.59853      0
C        C     0.8746       0.96627      0.61072      0
C        C     0.94973      0.902        0.60709      0
C        C     0.93809      0.91684      0.61927      0
C        C     0.95646      0.89194      0.62964      0
C        C     0.94565      0.90753      0.64182      0
C        C     0.98751      0.81319      0.63819      0
C        C     0.98249      0.83326      0.65037      0
C        C     0.98996      0.79994      0.66074      0
C        C     0.98585      0.82059      0.67292      0
C        C     0.99154      0.7027       0.00263      0
C        C     0.96732      0.59482      0.01118      0
C        C     0.95143      0.55187      0.02155      0
C        C     0.96157      0.57819      0.03373      0
C        C     0.89389      0.43867      0.0301       0
C        C     0.90934      0.4651       0.04229      0
C        C     0.88346      0.42195      0.05265      0
C        C     0.89964      0.44826      0.06484      0
C        C     0.80249      0.31295      0.06121      0
C        C     0.82303      0.33778      0.07339      0
C        C     0.78895      0.29742      0.08376      0
C        C     0.81006      0.32192      0.09594      0
C        C     0.69015      0.20017      0.09231      0
C        C     0.71437      0.2217       0.10449      0
C        C     0.67445      0.18692      0.11486      0
C        C     0.69903      0.2079       0.12705      0
C        C     0.56465      0.10814      0.12342      0
C        C     0.59087      0.12487      0.1356       0
C        C     0.54787      0.09808      0.14597      0
C        C     0.57421      0.1141       0.15815      0
C        C     0.43468      0.04323      0.15452      0
C        C     0.46108      0.05401      0.1667       0
C        C     0.41798      0.03706      0.17707      0
C        C     0.44427      0.047        0.18925      0
C        C     0.30923      0.00994      0.18563      0
C        C     0.33399      0.01401      0.19781      0
C        C     0.29376      0.00808      0.20818      0
C        C     0.31817      0.01125      0.22036      0
C        C     0.19698      0.01055      0.21673      0
C        C     0.21838      0.00764      0.22891      0
C        C     0.18382      0.01314      0.23928      0
C        C     0.20467      0.00933      0.25146      0
C        C     0.10571      0.04504      0.24783      0
C        C     0.12227      0.03535      0.26002      0
C        C     0.09576      0.0519       0.27038      0
C        C     0.1116       0.04137      0.28257      0
C        C     0.04172      0.11102      0.27894      0
C        C     0.05229      0.09522      0.29112      0
C        C     0.03567      0.12166      0.30149      0
C        C     0.04541      0.10514      0.31367      0
C        C     0.00944      0.20391      0.31004      0
C        C     0.0133       0.1831       0.32222      0
C        C     0.00772      0.21761      0.33259      0
C        C     0.01068      0.19624      0.34477      0
C        C     0.01112      0.3173       0.34115      0
C        C     0.00799      0.29291      0.35333      0
C        C     0.01384      0.3331       0.3637       0
C        C     0.00982      0.30837      0.37588      0
C        C     0.04663      0.44333      0.37225      0
C        C     0.03673      0.41705      0.38443      0
C        C     0.0536       0.46015      0.3948       0
C        C     0.04288      0.43375      0.40698      0
C        C     0.11351      0.57328      0.40335      0
C        C     0.09754      0.54693      0.41554      0
C        C     0.12426      0.58995      0.4259       0
C        C     0.10757      0.56372      0.43809      0
C        C     0.20714      0.69816      0.43446      0
C        C     0.18619      0.67357      0.44664      0
C        C     0.22092      0.71352      0.45701      0
C        C     0.19942      0.68928      0.46919      0
C        C     0.32104      0.80933      0.46556      0
C        C     0.29657      0.78819      0.47775      0
C        C     0.3369       0.82232      0.48811      0
C        C     0.31208      0.80174      0.5003       0
C        C     0.44733      0.89909      0.49667      0
C        C     0.42102      0.88287      0.50885      0
C        C     0.46416      0.90881      0.51922      0
C        C     0.43774      0.89332      0.5314       0
C        C     0.57726      0.96123      0.52777      0
C        C     0.55094      0.95105      0.53995      0
C        C     0.5939       0.96701      0.55032      0
C        C     0.56771      0.95768      0.5625       0
C        C     0.70184      0.99145      0.55888      0
C        C     0.67733      0.98802      0.57106      0
C        C     0.71714      0.99289      0.58143      0
C        C     0.69299      0.99036      0.59361      0
C        C     0.81246      0.98766      0.58998      0
C        C     0.79145      0.99121      0.60216      0
C        C     0.82536      0.98466      0.61253      0
C        C     0.80492      0.98911      0.62471      0
C        C     0.90145      0.95012      0.62108      0
C        C     0.8854       0.96041      0.63327      0
C        C     0.91106      0.94289      0.64363      0
C        C     0.89574      0.95401      0.65582      0
C        C     0.96266      0.88142      0.65219      0
C        C     0.95268      0.89774      0.66437      0
C        C     0.96831      0.87046      0.67474      0
C        C     0.95918      0.88749      0.68692      0
C        C     0.99185      0.78634      0.68329      0
C        C     0.98863      0.80755      0.69547      0
C        C     0.99315      0.7724       0.70584      0
C        C     0.99084      0.79415      0.71803      0
C        C     0.98528      0.66234      0.013        0
C        C     0.98956      0.68718      0.02518      0
C        C     0.98182      0.64629      0.03555      0
C        C     0.987        0.67143      0.04773      0
C        C     0.94431      0.53504      0.0441       0
C        C     0.95527      0.56146      0.05628      0
C        C     0.93666      0.51817      0.06665      0
C        C     0.94844      0.54466      0.07883      0
C        C     0.87259      0.40531      0.07521      0
C        C     0.88948      0.43149      0.08739      0
C        C     0.86127      0.38878      0.09776      0
C        C     0.87886      0.4148       0.10994      0
C        C     0.77508      0.28213      0.10631      0
C        C     0.79673      0.30627      0.11849      0
C        C     0.76089      0.2671       0.12886      0
C        C     0.78305      0.29084      0.14104      0
C        C     0.65854      0.17403      0.13741      0
C        C     0.68345      0.19445      0.1496       0
C        C     0.64245      0.16153      0.15996      0
C        C     0.66765      0.18135      0.17215      0
C        C     0.53103      0.08849      0.16852      0
C        C     0.55747      0.10377      0.1807       0
C        C     0.51415      0.07939      0.19107      0
C        C     0.54066      0.09392      0.20325      0
C        C     0.40136      0.03143      0.19962      0
C        C     0.42751      0.04052      0.2118       0
C        C     0.38487      0.02635      0.22217      0
C        C     0.41084      0.03458      0.23435      0
C        C     0.27853      0.0068       0.23073      0
C        C     0.30257      0.00907      0.24291      0
C        C     0.26356      0.0061       0.25328      0
C        C     0.2872       0.00746      0.26546      0
C        C     0.17102      0.0163       0.26183      0
C        C     0.1913       0.01159      0.27401      0
C        C     0.15861      0.02002      0.28438      0
C        C     0.17829      0.01442      0.29656      0
C        C     0.08628      0.05927      0.29293      0
C        C     0.10138      0.04791      0.30512      0
C        C     0.07729      0.06716      0.31549      0
C        C     0.09164      0.05499      0.32767      0
C        C     0.03017      0.13275      0.32404      0
C        C     0.03906      0.11552      0.33622      0
C        C     0.02522      0.14426      0.34659      0
C        C     0.03325      0.12636      0.35877      0
C        C     0.00658      0.23164      0.35514      0
C        C     0.00863      0.20974      0.36733      0
C        C     0.00601      0.24598      0.37769      0
C        C     0.00716      0.22358      0.38988      0
C        C     0.01713      0.3491       0.38625      0
C        C     0.01221      0.32405      0.39843      0
C        C     0.02099      0.36528      0.4088       0
C        C     0.01518      0.33994      0.42098      0
C        C     0.0611       0.47701      0.41735      0
C        C     0.04955      0.45053      0.42953      0
C        C     0.06912      0.4939       0.4399       0
C        C     0.05676      0.46737      0.45208      0
C        C     0.13545      0.60651      0.44846      0
C        C     0.11806      0.58044      0.46064      0
C        C     0.14707      0.62294      0.47101      0
C        C     0.129        0.59706      0.48319      0
C        C     0.23503      0.72863      0.47956      0
C        C     0.21301      0.70478      0.49174      0
C        C     0.24944      0.74348      0.50211      0
C        C     0.22693      0.72003      0.51429      0
C        C     0.35294      0.83494      0.51066      0
C        C     0.32781      0.81494      0.52285      0
C        C     0.36915      0.84716      0.53321      0
C        C     0.34375      0.82778      0.5454       0
C        C     0.48103      0.91806      0.54177      0
C        C     0.45454      0.90332      0.55395      0
C        C     0.49792      0.92682      0.56432      0
C        C     0.47138      0.91284      0.5765       0
C        C     0.61043      0.97225      0.57287      0
C        C     0.5844       0.96378      0.58505      0
C        C     0.62683      0.97694      0.59542      0
C        C     0.601        0.96933      0.60761      0
C        C     0.73219      0.99376      0.60398      0
C        C     0.70843      0.99214      0.61616      0
C        C     0.74697      0.99405      0.62653      0
C        C     0.72363      0.99334      0.63871      0
C        C     0.83788      0.9811       0.63508      0
C        C     0.81803      0.98644      0.64726      0
C        C     0.85001      0.97698      0.65763      0
C        C     0.83078      0.9832       0.66981      0
C        C     0.92019      0.93514      0.66618      0
C        C     0.90563      0.94708      0.67837      0
C        C     0.92883      0.92689      0.68874      0
C        C     0.91503      0.93963      0.70092      0
C        C     0.97342      0.85907      0.69729      0
C        C     0.96515      0.87678      0.70947      0
C        C     0.97797      0.84726      0.71984      0
C        C     0.97057      0.86563      0.73202      0
C        C     0.99388      0.75815      0.72839      0
C        C     0.99248      0.7804       0.74058      0
C        C     0.99354      0.76633      0.76313      0
C        C     0.99387      0.73515      0.04954      0
C        C     0.9778       0.63007      0.0581       0
C        C     0.98387      0.65549      0.07028      0
C        C     0.97323      0.6137       0.08065      0
C        C     0.98017      0.63936      0.09283      0
C        C     0.9285       0.50127      0.0892       0
C        C     0.94109      0.52781      0.10138      0
C        C     0.91984      0.48438      0.11175      0
C        C     0.93322      0.51093      0.12394      0
C        C     0.84954      0.37239      0.12031      0
C        C     0.86779      0.39821      0.13249      0
C        C     0.8374       0.35614      0.14286      0
C        C     0.8563       0.38174      0.15504      0
C        C     0.74639      0.25234      0.15141      0
C        C     0.76904      0.27566      0.16359      0
C        C     0.7316       0.23786      0.17396      0
C        C     0.75471      0.26074      0.18614      0
C        C     0.62619      0.14942      0.18251      0
C        C     0.65166      0.16863      0.1947       0
C        C     0.60978      0.13772      0.20507      0
C        C     0.6355       0.15629      0.21725      0
C        C     0.49725      0.07077      0.21362      0
C        C     0.52379      0.08453      0.2258       0
C        C     0.48036      0.06265      0.23617      0
C        C     0.50691      0.07563      0.24835      0
C        C     0.36851      0.02182      0.24472      0
C        C     0.39428      0.02919      0.25691      0
C        C     0.3523       0.01785      0.26727      0
C        C     0.37784      0.02434      0.27946      0
C        C     0.24886      0.00597      0.27583      0
C        C     0.27208      0.00643      0.28801      0
C        C     0.23446      0.00642      0.29838      0
C        C     0.25722      0.00597      0.31056      0
C        C     0.1466       0.02431      0.30693      0
C        C     0.16565      0.01782      0.31911      0
C        C     0.135        0.02915      0.32948      0
C        C     0.15341      0.02179      0.34166      0
C        C     0.06879      0.07556      0.33804      0
C        C     0.08237      0.06259      0.35022      0
C        C     0.0608       0.08446      0.36059      0
C        C     0.07359      0.0707       0.37277      0
C        C     0.02083      0.15619      0.36914      0
C        C     0.02798      0.13763      0.38132      0
C        C     0.01699      0.16853      0.39169      0
C        C     0.02327      0.14933      0.40387      0
C        C     0.00602      0.26062      0.40024      0
C        C     0.00627      0.23775      0.41243      0
C        C     0.00661      0.27554      0.42279      0
C        C     0.00595      0.25222      0.43498      0
C        C     0.02541      0.38161      0.43135      0
C        C     0.01872      0.35601      0.44353      0
C        C     0.03038      0.39808      0.4539       0
C        C     0.02282      0.37226      0.46608      0
C        C     0.07764      0.51079      0.46245      0
C        C     0.06448      0.48424      0.47463      0
C        C     0.08665      0.52768      0.485        0
C        C     0.07271      0.50114      0.49719      0
C        C     0.15909      0.63923      0.49356      0
C        C     0.14038      0.61357      0.50574      0
C        C     0.17152      0.65536      0.51611      0
C        C     0.15217      0.62994      0.52829      0
C        C     0.26415      0.75803      0.52466      0
C        C     0.24117      0.73503      0.53684      0
C        C     0.27913      0.77229      0.54721      0
C        C     0.25571      0.74975      0.55939      0
C        C     0.38552      0.85898      0.55577      0
C        C     0.35987      0.84022      0.56795      0
C        C     0.40202      0.87037      0.57832      0
C        C     0.37615      0.85228      0.5905       0
C        C     0.51482      0.93508      0.58687      0
C        C     0.48827      0.92188      0.59905      0
C        C     0.53169      0.94283      0.60942      0
C        C     0.50516      0.93042      0.6216       0
C        C     0.64309      0.98107      0.61797      0
C        C     0.61748      0.97433      0.63016      0
C        C     0.65917      0.98464      0.64052      0
C        C     0.63382      0.97878      0.65271      0
C        C     0.76146      0.99377      0.64908      0
C        C     0.73856      0.99396      0.66126      0
C        C     0.77564      0.9929       0.67163      0
C        C     0.75321      0.994        0.68381      0
C        C     0.86173      0.97229      0.68018      0
C        C     0.84313      0.9794       0.69236      0
C        C     0.87303      0.96706      0.70273      0
C        C     0.85508      0.97504      0.71491      0
C        C     0.93697      0.91813      0.71129      0
C        C     0.92396      0.93167      0.72347      0
C        C     0.9446       0.90889      0.73384      0
C        C     0.93238      0.9232       0.74602      0
C        C     0.98197      0.83504      0.74239      0
C        C     0.97544      0.85406      0.75457      0
C        C     0.9854       0.82243      0.76494      0
C        C     0.97976      0.84207      0.77712      0
C        C     0.99402      0.75195      0.78568      0
C        C     0.99311      0.72015      0.07209      0
C        C     0.99404      0.74359      0.08428      0
C        C     0.99178      0.7049       0.09465      0
C        C     0.99361      0.72875      0.10683      0
C        C     0.9681       0.59719      0.1032       0
C        C     0.97591      0.62307      0.11538      0
C        C     0.96242      0.58057      0.12575      0
C        C     0.9711       0.60664      0.13793      0
C        C     0.91069      0.4675       0.1343       0
C        C     0.92485      0.49403      0.14649      0
C        C     0.90106      0.45067      0.15685      0
C        C     0.91598      0.47714      0.16904      0
C        C     0.82486      0.34007      0.16541      0
C        C     0.84438      0.36541      0.17759      0
C        C     0.81194      0.32418      0.18796      0
C        C     0.83207      0.34923      0.20014      0
C        C     0.71654      0.2237       0.19651      0
C        C     0.74009      0.2461       0.20869      0
C        C     0.70123      0.20985      0.21906      0
C        C     0.72518      0.23175      0.23124      0
C        C     0.59324      0.12645      0.22762      0
C        C     0.61917      0.14436      0.2398       0
C        C     0.5766       0.11561      0.25017      0
C        C     0.60271      0.13284      0.26235      0
C        C     0.46349      0.05505      0.25872      0
C        C     0.49001      0.06723      0.2709       0
C        C     0.44666      0.04797      0.28127      0
C        C     0.47313      0.05933      0.29345      0
C        C     0.33626      0.01445      0.28982      0
C        C     0.36154      0.02005      0.30201      0
C        C     0.32042      0.01161      0.31237      0
C        C     0.3454       0.01633      0.32456      0
C        C     0.22037      0.00745      0.32093      0
C        C     0.24265      0.00609      0.33311      0
C        C     0.20661      0.00905      0.34348      0
C        C     0.22838      0.00679      0.35566      0
C        C     0.12383      0.03454      0.35203      0
C        C     0.14158      0.02631      0.36421      0
C        C     0.1131       0.04047      0.37458      0
C        C     0.13016      0.03139      0.38677      0
C        C     0.05332      0.09384      0.38314      0
C        C     0.0653       0.07931      0.39532      0
C        C     0.04636      0.10369      0.40569      0
C        C     0.05753      0.08842      0.41787      0
C        C     0.01372      0.18125      0.41424      0
C        C     0.01911      0.16143      0.42642      0
C        C     0.01102      0.19434      0.43679      0
C        C     0.01552      0.17393      0.44897      0
C        C     0.00778      0.29072      0.44535      0
C        C     0.00621      0.26698      0.45753      0
C        C     0.00952      0.30614      0.4679       0
C        C     0.00704      0.28201      0.48008      0
C        C     0.0359       0.41467      0.47645      0
C        C     0.02747      0.38865      0.48863      0
C        C     0.04197      0.43136      0.499        0
C        C     0.03268      0.40518      0.51118      0
C        C     0.09614      0.54453      0.50755      0
C        C     0.08144      0.51803      0.51974      0
C        C     0.10611      0.56133      0.5301       0
C        C     0.09066      0.5349       0.54229      0
C        C     0.18433      0.6713       0.53866      0
C        C     0.16437      0.64616      0.55084      0
C        C     0.19751      0.68705      0.56121      0
C        C     0.17697      0.66222      0.57339      0
C        C     0.29437      0.78623      0.56976      0
C        C     0.27053      0.76418      0.58194      0
C        C     0.30985      0.79983      0.59231      0
C        C     0.28563      0.7783       0.60449      0
C        C     0.41864      0.88134      0.60087      0
C        C     0.39258      0.86391      0.61305      0
C        C     0.43535      0.89186      0.62342      0
C        C     0.40913      0.87513      0.6356       0
C        C     0.54853      0.95006      0.63197      0
C        C     0.52205      0.93846      0.64415      0
C        C     0.56532      0.95677      0.65452      0
C        C     0.53892      0.94599      0.6667       0
C        C     0.67507      0.98764      0.66307      0
C        C     0.65         0.98267      0.67526      0
C        C     0.69077      0.99006      0.68563      0
C        C     0.66601      0.98599      0.69781      0
C        C     0.7895       0.99146      0.69418      0
C        C     0.76757      0.99347      0.70636      0
C        C     0.80302      0.98945      0.71673      0
C        C     0.78162      0.99236      0.72891      0
C        C     0.88388      0.96128      0.72528      0
C        C     0.86662      0.97012      0.73747      0
C        C     0.89429      0.95496      0.74783      0
C        C     0.87773      0.96465      0.76002      0
C        C     0.95171      0.89917      0.75639      0
C        C     0.9403       0.91423      0.76857      0
C        C     0.95828      0.88898      0.77894      0
C        C     0.94771      0.90478      0.79112      0
C        C     0.98827      0.80944      0.78749      0
C        C     0.98351      0.82968      0.79967      0
C        C     0.99056      0.79609      0.81004      0
C        C     0.9867       0.8169       0.82222      0
C        C     0.98988      0.68941      0.1172       0
C        C     0.99261      0.71365      0.12938      0
C        C     0.9874       0.67369      0.13975      0
C        C     0.99103      0.69829      0.15193      0
C        C     0.9562       0.56386      0.1483       0
C        C     0.96573      0.59008      0.16048      0
C        C     0.94945      0.54707      0.17085      0
C        C     0.95982      0.57342      0.18303      0
C        C     0.89096      0.43389      0.1794       0
C        C     0.90662      0.46028      0.19159      0
C        C     0.8804       0.41718      0.20195      0
C        C     0.89679      0.44347      0.21414      0
C        C     0.79866      0.30849      0.21051      0
C        C     0.81937      0.33323      0.22269      0
C        C     0.78502      0.29303      0.23306      0
C        C     0.80629      0.31743      0.24524      0
C        C     0.68569      0.19635      0.24161      0
C        C     0.71001      0.21772      0.2538       0
C        C     0.66992      0.1832       0.26416      0
C        C     0.6946       0.20402      0.27635      0
C        C     0.55986      0.10522      0.27272      0
C        C     0.58612      0.12175      0.2849       0
C        C     0.54306      0.0953       0.29527      0
C        C     0.56944      0.1111       0.30745      0
C        C     0.4299       0.04142      0.30382      0
C        C     0.45627      0.05195      0.316        0
C        C     0.41322      0.0354       0.32637      0
C        C     0.43947      0.0451       0.33855      0
C        C     0.30479      0.00935      0.33493      0
C        C     0.32945      0.01316      0.34711      0
C        C     0.28938      0.00765      0.35748      0
C        C     0.31369      0.01057      0.36966      0
C        C     0.19319      0.01123      0.36603      0
C        C     0.21443      0.00807      0.37821      0
C        C     0.18012      0.01398      0.38858      0
C        C     0.20081      0.00992      0.40076      0
C        C     0.10282      0.04695      0.39713      0
C        C     0.11917      0.03702      0.40932      0
C        C     0.093        0.05395      0.41968      0
C        C     0.10863      0.04318      0.43187      0
C        C     0.03993      0.11401      0.42824      0
C        C     0.05027      0.098        0.44042      0
C        C     0.03405      0.12478      0.45079      0
C        C     0.04354      0.10806      0.46297      0
C        C     0.00889      0.20779      0.45934      0
C        C     0.01249      0.18681      0.47152      0
C        C     0.00734      0.22159      0.48189      0
C        C     0.01004      0.20006      0.49408      0
C        C     0.01184      0.3218       0.49045      0
C        C     0.00846      0.2973       0.50263      0
C        C     0.01472      0.33766      0.513        0
C        C     0.01044      0.31282      0.52518      0
C        C     0.04857      0.44813      0.52155      0
C        C     0.03843      0.42181      0.53373      0
C        C     0.05569      0.46496      0.5441       0
C        C     0.04473      0.43854      0.55628      0
C        C     0.11654      0.57805      0.55265      0
C        C     0.10036      0.55174      0.56484      0
C        C     0.12741      0.59469      0.57521      0
C        C     0.11052      0.56851      0.58739      0
C        C     0.21105      0.70258      0.58376      0
C        C     0.18994      0.67808      0.59594      0
C        C     0.22492      0.71787      0.60631      0
C        C     0.20327      0.69373      0.61849      0
C        C     0.32555      0.81308      0.61486      0
C        C     0.30097      0.7921       0.62705      0
C        C     0.34146      0.82597      0.63741      0
C        C     0.31655      0.80555      0.6496       0
C        C     0.45213      0.90192      0.64597      0
C        C     0.42579      0.8859       0.65815      0
C        C     0.46897      0.91151      0.66852      0
C        C     0.44253      0.89623      0.6807       0
C        C     0.58202      0.96294      0.67707      0
C        C     0.55573      0.953        0.68925      0
C        C     0.59864      0.96857      0.69962      0
C        C     0.57249      0.95948      0.7118       0
C        C     0.70624      0.99192      0.70818      0
C        C     0.68183      0.98875      0.72036      0
C        C     0.72147      0.9932       0.73073      0
C        C     0.69743      0.99093      0.74291      0
C        C     0.81618      0.98686      0.73928      0
C        C     0.79533      0.99067      0.75146      0
C        C     0.82898      0.9837       0.76183      0
C        C     0.8087       0.98841      0.77401      0
C        C     0.90424      0.9481       0.77038      0
C        C     0.8884       0.95863      0.78257      0
C        C     0.91372      0.94073      0.79293      0
C        C     0.89862      0.95209      0.80512      0
C        C     0.96433      0.87834      0.80149      0
C        C     0.95459      0.89486      0.81367      0
C        C     0.96983      0.86725      0.82404      0
C        C     0.96094      0.88448      0.83622      0
C        C     0.99228      0.78239      0.83259      0
C        C     0.98932      0.80376      0.84477      0
C        C     0.99342      0.76836      0.85514      0
C        C     0.99137      0.79026      0.86733      0
C        C     0.98435      0.65778      0.1623       0
C        C     0.98888      0.6827       0.17448      0
C        C     0.98073      0.64168      0.18485      0
C        C     0.98616      0.6669       0.19703      0
C        C     0.94217      0.53022      0.1934       0
C        C     0.95337      0.55667      0.20558      0
C        C     0.93438      0.51334      0.21595      0
C        C     0.9464       0.53985      0.22813      0
C        C     0.8694       0.40058      0.22451      0
C        C     0.88649      0.42672      0.23669      0
C        C     0.85796      0.38409      0.24706      0
C        C     0.87574      0.41005      0.25924      0
C        C     0.77106      0.27781      0.25561      0
C        C     0.79286      0.30184      0.26779      0
C        C     0.75678      0.26285      0.27816      0
C        C     0.77908      0.28648      0.29034      0
C        C     0.65396      0.17042      0.28671      0
C        C     0.67896      0.19067      0.2989       0
C        C     0.63782      0.15803      0.30926      0
C        C     0.6631       0.17768      0.32145      0
C        C     0.52621      0.08584      0.31782      0
C        C     0.55267      0.10091      0.33         0
C        C     0.50932      0.07687      0.34037      0
C        C     0.53584      0.09119      0.35255      0
C        C     0.39664      0.02992      0.34892      0
C        C     0.42274      0.03877      0.3611       0
C        C     0.38018      0.025        0.37147      0
C        C     0.4061       0.03299      0.38366      0
C        C     0.27422      0.00654      0.38003      0
C        C     0.29816      0.00855      0.39221      0
C        C     0.25933      0.006        0.40258      0
C        C     0.28286      0.00711      0.41476      0
C        C     0.16744      0.0173       0.41113      0
C        C     0.18754      0.01234      0.42331      0
C        C     0.15514      0.02119      0.43368      0
C        C     0.17464      0.01534      0.44586      0
C        C     0.08366      0.06147      0.44223      0
C        C     0.09855      0.04988      0.45442      0
C        C     0.07481      0.06951      0.46479      0
C        C     0.08894      0.05711      0.47697      0
C        C     0.0287       0.13599      0.47334      0
C        C     0.03734      0.11858      0.48552      0
C        C     0.02391      0.14763      0.49589      0
C        C     0.03169      0.12954      0.50807      0
C        C     0.00636      0.2357       0.50444      0
C        C     0.00815      0.21366      0.51663      0
C        C     0.00596      0.25013      0.52699      0
C        C     0.00685      0.2276       0.53918      0
C        C     0.01818      0.35371      0.53555      0
C        C     0.013        0.32857      0.54773      0
C        C     0.0222       0.36993      0.5581       0
C        C     0.01613      0.34451      0.57028      0
C        C     0.06334      0.48183      0.56665      0
C        C     0.05156      0.45534      0.57883      0
C        C     0.0715       0.49873      0.5892       0
C        C     0.05891      0.47219      0.60138      0
C        C     0.13873      0.61122      0.59776      0
C        C     0.12114      0.5852       0.60994      0
C        C     0.15046      0.62761      0.62031      0
C        C     0.13221      0.60179      0.63249      0
C        C     0.23911      0.7329       0.62886      0
C        C     0.21695      0.70916      0.64104      0
C        C     0.25361      0.74766      0.65141      0
C        C     0.23096      0.72434      0.66359      0
C        C     0.35755      0.83847      0.65996      0
C        C     0.33235      0.81865      0.67215      0
C        C     0.37381      0.85058      0.68251      0
C        C     0.34834      0.83137      0.6947       0
C        C     0.48585      0.92061      0.69107      0
C        C     0.45934      0.90608      0.70325      0
C        C     0.50275      0.92923      0.71362      0
C        C     0.47621      0.91547      0.7258       0
C        C     0.61513      0.97365      0.72217      0
C        C     0.58916      0.96542      0.73435      0
C        C     0.63149      0.97818      0.74472      0
C        C     0.60572      0.97081      0.75691      0
C        C     0.73644      0.9939       0.75328      0
C        C     0.7128       0.99254      0.76546      0
C        C     0.75114      0.99403      0.77583      0
C        C     0.72792      0.99357      0.78801      0
C        C     0.84139      0.97998      0.78438      0
C        C     0.82171      0.98558      0.79656      0
C        C     0.8534       0.97569      0.80693      0
C        C     0.83435      0.98218      0.81911      0
C        C     0.92271      0.93284      0.81549      0
C        C     0.90836      0.94501      0.82767      0
C        C     0.93121      0.92444      0.83804      0
C        C     0.91763      0.93741      0.85022      0
C        C     0.97478      0.85574      0.84659      0
C        C     0.96675      0.87364      0.85877      0
C        C     0.97917      0.84381      0.86914      0
C        C     0.97202      0.86237      0.88132      0
C        C     0.99399      0.75402      0.87769      0
C        C     0.99284      0.77642      0.88988      0
C        C     0.99373      0.76225      0.91243      0
C        C     0.99405      0.74569      0.17629      0
C        C     0.99371      0.73089      0.19884      0
C        C     0.97655      0.62541      0.2074       0
C        C     0.98287      0.6509       0.21958      0
C        C     0.97182      0.60899      0.22995      0
C        C     0.97901      0.63472      0.24213      0
C        C     0.92608      0.49645      0.2385       0
C        C     0.9389       0.52299      0.25068      0
C        C     0.91727      0.47956      0.26105      0
C        C     0.93088      0.5061       0.27324      0
C        C     0.84611      0.36773      0.26961      0
C        C     0.86455      0.39349      0.28179      0
C        C     0.83385      0.35153      0.29216      0
C        C     0.85293      0.37706      0.30434      0
C        C     0.74219      0.24817      0.30071      0
C        C     0.76497      0.27137      0.31289      0
C        C     0.72733      0.23378      0.32326      0
C        C     0.75056      0.25652      0.33544      0
C        C     0.62151      0.14604      0.33181      0
C        C     0.64706      0.16506      0.344        0
C        C     0.60507      0.13446      0.35437      0
C        C     0.63085      0.15284      0.36655      0
C        C     0.49242      0.0684       0.36292      0
C        C     0.51897      0.08194      0.3751       0
C        C     0.47554      0.06043      0.38547      0
C        C     0.50208      0.07318      0.39765      0
C        C     0.36386      0.02063      0.39402      0
C        C     0.38957      0.02775      0.40621      0
C        C     0.3477       0.01682      0.41657      0
C        C     0.37317      0.02306      0.42876      0
C        C     0.24472      0.00604      0.42513      0
C        C     0.26781      0.00624      0.43731      0
C        C     0.2304       0.00666      0.44768      0
C        C     0.25303      0.00595      0.45986      0
C        C     0.14324      0.02563      0.45623      0
C        C     0.16212      0.0189       0.46841      0
C        C     0.13176      0.03063      0.47878      0
C        C     0.14999      0.02302      0.49096      0
C        C     0.06646      0.07805      0.48734      0
C        C     0.07981      0.06486      0.49952      0
C        C     0.05861      0.08709      0.50989      0
C        C     0.07117      0.07311      0.52207      0
C        C     0.01967      0.15968      0.51844      0
C        C     0.02658      0.14093      0.53062      0
C        C     0.016        0.17212      0.54099      0
C        C     0.02203      0.15274      0.55317      0
C        C     0.00613      0.26485      0.54954      0
C        C     0.00612      0.24185      0.56173      0
C        C     0.00689      0.27985      0.57209      0
C        C     0.00596      0.25641      0.58428      0
C        C     0.02677      0.3863       0.58065      0
C        C     0.01983      0.36064      0.59283      0
C        C     0.0319       0.40281      0.6032       0
C        C     0.02409      0.37693      0.61538      0
C        C     0.08016      0.51562      0.61175      0
C        C     0.06678      0.48907      0.62394      0
C        C     0.08931      0.5325       0.6343       0
C        C     0.07515      0.50597      0.64649      0
C        C     0.1626       0.64386      0.64286      0
C        C     0.1437       0.61826      0.65504      0
C        C     0.17514      0.65993      0.66541      0
C        C     0.15562      0.63459      0.67759      0
C        C     0.2684       0.76214      0.67396      0
C        C     0.24529      0.73926      0.68614      0
C        C     0.28346      0.7763       0.69651      0
C        C     0.25991      0.7539       0.70869      0
C        C     0.39022      0.86228      0.70507      0
C        C     0.3645       0.84371      0.71725      0
C        C     0.40676      0.87355      0.72762      0
C        C     0.38083      0.85564      0.7398       0
C        C     0.51964      0.93735      0.73617      0
C        C     0.49309      0.92437      0.74835      0
C        C     0.53651      0.94495      0.75872      0
C        C     0.50999      0.93277      0.7709       0
C        C     0.6477       0.98215      0.76727      0
C        C     0.62216      0.97566      0.77946      0
C        C     0.66374      0.98555      0.78982      0
C        C     0.63846      0.97995      0.80201      0
C        C     0.76554      0.99358      0.79838      0
C        C     0.74278      0.99403      0.81056      0
C        C     0.77963      0.99255      0.82093      0
C        C     0.75735      0.99391      0.83311      0
C        C     0.865        0.97085      0.82948      0
C        C     0.84659      0.97821      0.84166      0
C        C     0.87617      0.96546      0.85203      0
C        C     0.85842      0.97369      0.86421      0
C        C     0.9392       0.91554      0.86059      0
C        C     0.92641      0.9293       0.87277      0
C        C     0.94668      0.90616      0.88314      0
C        C     0.9347       0.92069      0.89532      0
C        C     0.98301      0.83147      0.89169      0
C        C     0.97673      0.85067      0.90387      0
C        C     0.98628      0.81875      0.91424      0
C        C     0.98089      0.83857      0.92642      0
C        C     0.99405      0.74778      0.93498      0
C        C     0.99279      0.71582      0.22139      0
C        C     0.99398      0.73938      0.23358      0
C        C     0.9913       0.7005       0.24395      0
C        C     0.99339      0.72446      0.25613      0
C        C     0.96653      0.59245      0.2525       0
C        C     0.97459      0.61839      0.26468      0
C        C     0.9607       0.5758       0.27505      0
C        C     0.96962      0.60192      0.28723      0
C        C     0.90799      0.46269      0.2836       0
C        C     0.92236      0.48921      0.29579      0
C        C     0.89822      0.44586      0.30615      0
C        C     0.91335      0.47232      0.31834      0
C        C     0.8212       0.33551      0.31471      0
C        C     0.84091      0.36077      0.32689      0
C        C     0.80818      0.31967      0.33726      0
C        C     0.82848      0.34464      0.34944      0
C        C     0.71219      0.21971      0.34581      0
C        C     0.73585      0.24197      0.35799      0
C        C     0.69681      0.20596      0.36836      0
C        C     0.72087      0.22771      0.38054      0
C        C     0.5885       0.12331      0.37692      0
C        C     0.61448      0.14102      0.3891       0
C        C     0.57183      0.1126       0.39947      0
C        C     0.59798      0.12963      0.41165      0
C        C     0.45868      0.05297      0.40802      0
C        C     0.48518      0.06492      0.4202       0
C        C     0.44187      0.04604      0.43057      0
C        C     0.46831      0.05717      0.44275      0
C        C     0.33172      0.01358      0.43912      0
C        C     0.35691      0.01893      0.45131      0
C        C     0.31593      0.01091      0.46167      0
C        C     0.34083      0.01536      0.47386      0
C        C     0.2164       0.00785      0.47023      0
C        C     0.23854      0.00623      0.48241      0
C        C     0.20274      0.00962      0.49278      0
C        C     0.22436      0.0071       0.50496      0
C        C     0.12072      0.03618      0.50133      0
C        C     0.13827      0.02771      0.51352      0
C        C     0.11011      0.04227      0.52388      0
C        C     0.12697      0.03294      0.53607      0
C        C     0.05128      0.09661      0.53244      0
C        C     0.06303      0.08187      0.54462      0
C        C     0.04447      0.1066       0.55499      0
C        C     0.0554       0.09111      0.56717      0
C        C     0.01289      0.18495      0.56354      0
C        C     0.01803      0.16496      0.57572      0
C        C     0.01035      0.19815      0.58609      0
C        C     0.0146       0.17757      0.59827      0
C        C     0.00822      0.2951       0.59465      0
C        C     0.00639      0.27125      0.60683      0
C        C     0.01012      0.31059      0.6172       0
C        C     0.00739      0.28635      0.62938      0
C        C     0.03758      0.41943      0.62575      0
C        C     0.0289       0.39336      0.63793      0
C        C     0.0438       0.43614      0.6483       0
C        C     0.03427      0.40992      0.66048      0
C        C     0.09894      0.54933      0.65685      0
C        C     0.08402      0.52286      0.66904      0
C        C     0.10904      0.56611      0.6794       0
C        C     0.09338      0.53972      0.69159      0
C        C     0.18806      0.67582      0.68796      0
C        C     0.16793      0.65077      0.70014      0
C        C     0.20134      0.69151      0.71051      0
C        C     0.18063      0.66677      0.72269      0
C        C     0.29877      0.79015      0.71906      0
C        C     0.27482      0.76825      0.73124      0
C        C     0.31431      0.80365      0.74161      0
C        C     0.28999      0.78228      0.7538       0
C        C     0.4234       0.88439      0.75017      0
C        C     0.39729      0.86716      0.76235      0
C        C     0.44014      0.89478      0.77272      0
C        C     0.41388      0.87825      0.7849       0
C        C     0.55334      0.95203      0.78127      0
C        C     0.52687      0.94067      0.79345      0
C        C     0.5701       0.95858      0.80382      0
C        C     0.54373      0.94805      0.816        0
C        C     0.67958      0.98839      0.81237      0
C        C     0.6546       0.98367      0.82456      0
C        C     0.69521      0.99065      0.83493      0
C        C     0.67055      0.98684      0.84711      0
C        C     0.79339      0.99095      0.84348      0
C        C     0.77162      0.99321      0.85566      0
C        C     0.80681      0.98877      0.86603      0
C        C     0.78557      0.99193      0.87821      0
C        C     0.8869       0.95953      0.87458      0
C        C     0.86984      0.96861      0.88677      0
C        C     0.89718      0.95305      0.89713      0
C        C     0.88083      0.96298      0.90932      0
C        C     0.95364      0.89631      0.90569      0
C        C     0.94247      0.91158      0.91787      0
C        C     0.96007      0.88599      0.92824      0
C        C     0.94973      0.902        0.94042      0
C        C     0.98898      0.80566      0.93679      0
C        C     0.98448      0.82607      0.94897      0
C        C     0.99111      0.79221      0.95934      0
C        C     0.98751      0.81319      0.97152      0
C        C     0.98923      0.68494      0.2665       0
C        C     0.99222      0.70928      0.27868      0
C        C     0.98658      0.66917      0.28905      0
C        C     0.99048      0.69386      0.30123      0
C        C     0.95433      0.55907      0.2976       0
C        C     0.9641       0.58533      0.30978      0
C        C     0.94742      0.54226      0.32015      0
C        C     0.95803      0.56864      0.33233      0
C        C     0.88799      0.4291       0.3287       0
C        C     0.90386      0.45547      0.34089      0
C        C     0.8773       0.41243      0.35125      0
C        C     0.89389      0.43867      0.36344      0
C        C     0.7948       0.30405      0.35981      0
C        C     0.81567      0.3287       0.37199      0
C        C     0.78107      0.28866      0.38236      0
C        C     0.80249      0.31295      0.39454      0
C        C     0.6812       0.19255      0.39091      0
C        C     0.70563      0.21377      0.4031       0
C        C     0.66538      0.17951      0.41346      0
C        C     0.69015      0.20017      0.42565      0
C        C     0.55507      0.10234      0.42202      0
C        C     0.58136      0.11866      0.4342       0
C        C     0.53825      0.09255      0.44457      0
C        C     0.56465      0.10814      0.45675      0
C        C     0.42513      0.03964      0.45312      0
C        C     0.45147      0.04994      0.4653       0
C        C     0.40847      0.03378      0.47567      0
C        C     0.43468      0.04323      0.48785      0
C        C     0.30036      0.0088       0.48423      0
C        C     0.32493      0.01236      0.49641      0
C        C     0.28503      0.00728      0.50678      0
C        C     0.30923      0.00994      0.51896      0
C        C     0.18942      0.01196      0.51533      0
C        C     0.2105       0.00854      0.52751      0
C        C     0.17646      0.01488      0.53788      0
C        C     0.19698      0.01055      0.55006      0
C        C     0.09996      0.04889      0.54643      0
C        C     0.11612      0.03872      0.55862      0
C        C     0.09028      0.05605      0.56898      0
C        C     0.10571      0.04504      0.58117      0
C        C     0.0382       0.11705      0.57754      0
C        C     0.04829      0.10083      0.58972      0
C        C     0.03246      0.12794      0.60009      0
C        C     0.04172      0.11102      0.61227      0
C        C     0.00839      0.2117       0.60864      0
C        C     0.01173      0.19056      0.62082      0
C        C     0.007        0.22559      0.63119      0
C        C     0.00944      0.20391      0.64338      0
C        C     0.0126       0.32631      0.63975      0
C        C     0.00897      0.30171      0.65193      0
C        C     0.01565      0.34222      0.6623       0
C        C     0.01112      0.3173       0.67448      0
C        C     0.05055      0.45293      0.67085      0
C        C     0.04018      0.42658      0.68303      0
C        C     0.05783      0.46978      0.6934       0
C        C     0.04663      0.44333      0.70558      0
C        C     0.1196       0.58282      0.70195      0
C        C     0.10321      0.55653      0.71414      0
C        C     0.1306       0.59942      0.72451      0
C        C     0.11351      0.57328      0.73669      0
C        C     0.21498      0.70697      0.73306      0
C        C     0.19371      0.68257      0.74524      0
C        C     0.22894      0.72219      0.75561      0
C        C     0.20714      0.69816      0.76779      0
C        C     0.33008      0.8168       0.76416      0
C        C     0.3054       0.79598      0.77635      0
C        C     0.34604      0.82958      0.78671      0
C        C     0.32104      0.80933      0.7989       0
C        C     0.45694      0.9047       0.79527      0
C        C     0.43056      0.8889       0.80745      0
C        C     0.47379      0.91416      0.81782      0
C        C     0.44733      0.89909      0.83         0
C        C     0.58678      0.9646       0.82637      0
C        C     0.56053      0.9549       0.83855      0
C        C     0.60336      0.97008      0.84892      0
C        C     0.57726      0.96123      0.8611       0
C        C     0.71062      0.99235      0.85748      0
C        C     0.68631      0.98943      0.86966      0
C        C     0.72578      0.99346      0.88003      0
C        C     0.70184      0.99145      0.89221      0
C        C     0.81988      0.98602      0.88858      0
C        C     0.79919      0.99008      0.90076      0
C        C     0.83256      0.9827       0.91113      0
C        C     0.81246      0.98766      0.92331      0
C        C     0.907        0.94605      0.91968      0
C        C     0.89137      0.95682      0.93187      0
C        C     0.91634      0.93853      0.94223      0
C        C     0.90145      0.95012      0.95442      0
C        C     0.96595      0.87522      0.95079      0
C        C     0.95646      0.89194      0.96297      0
C        C     0.9713       0.86401      0.97334      0
C        C     0.96266      0.88142      0.98552      0
C        C     0.99266      0.77841      0.98189      0
C        C     0.98996      0.79994      0.99408      0
C        C     0.98337      0.65319      0.3116       0
C        C     0.98816      0.6782       0.32378      0
C        C     0.9796       0.63704      0.33415      0
C        C     0.98528      0.66234      0.34633      0
C        C     0.94         0.5254       0.3427       0
C        C     0.95143      0.55187      0.35488      0
C        C     0.93206      0.50852      0.36525      0
C        C     0.94431      0.53504      0.37743      0
C        C     0.86617      0.39585      0.37381      0
C        C     0.88346      0.42195      0.38599      0
C        C     0.85462      0.3794       0.39636      0
C        C     0.87259      0.40531      0.40854      0
C        C     0.76701      0.27351      0.40491      0
C        C     0.78895      0.29742      0.41709      0
C        C     0.75264      0.25863      0.42746      0
C        C     0.77508      0.28213      0.43964      0
C        C     0.64936      0.16684      0.43601      0
C        C     0.67445      0.18692      0.4482       0
C        C     0.63317      0.15456      0.45856      0
C        C     0.65854      0.17403      0.47075      0
C        C     0.52138      0.08323      0.46712      0
C        C     0.54787      0.09808      0.4793       0
C        C     0.50449      0.0744       0.48967      0
C        C     0.53103      0.08849      0.50185      0
C        C     0.39192      0.02846      0.49822      0
C        C     0.41798      0.03706      0.5104       0
C        C     0.3755       0.02369      0.52077      0
C        C     0.40136      0.03143      0.53296      0
C        C     0.26994      0.00633      0.52933      0
C        C     0.29376      0.00808      0.54151      0
C        C     0.25513      0.00595      0.55188      0
C        C     0.27853      0.0068       0.56406      0
C        C     0.16388      0.01836      0.56043      0
C        C     0.18382      0.01314      0.57261      0
C        C     0.1517       0.0224       0.58298      0
C        C     0.17102      0.0163       0.59516      0
C        C     0.08108      0.06372      0.59153      0
C        C     0.09576      0.0519       0.60372      0
C        C     0.07237      0.0719       0.61409      0
C        C     0.08628      0.05927      0.62627      0
C        C     0.02728      0.13928      0.62264      0
C        C     0.03567      0.12166      0.63482      0
C        C     0.02264      0.15103      0.64519      0
C        C     0.03017      0.13275      0.65737      0
C        C     0.00618      0.2398       0.65374      0
C        C     0.00772      0.21761      0.66593      0
C        C     0.00595      0.25431      0.67629      0
C        C     0.00658      0.23164      0.68848      0
C        C     0.01927      0.35832      0.68485      0
C        C     0.01384      0.3331       0.69703      0
C        C     0.02345      0.37459      0.7074       0
C        C     0.01713      0.3491       0.71958      0
C        C     0.06562      0.48666      0.71595      0
C        C     0.0536       0.46015      0.72813      0
C        C     0.07392      0.50355      0.7385       0
C        C     0.0611       0.47701      0.75068      0
C        C     0.14204      0.61591      0.74706      0
C        C     0.12426      0.58995      0.75924      0
C        C     0.15389      0.63227      0.76961      0
C        C     0.13545      0.60651      0.78179      0
C        C     0.24322      0.73715      0.77816      0
C        C     0.22092      0.71352      0.79034      0
C        C     0.25781      0.75183      0.80071      0
C        C     0.23503      0.72863      0.81289      0
C        C     0.36218      0.84197      0.80926      0
C        C     0.3369       0.82232      0.82145      0
C        C     0.37849      0.85396      0.83181      0
C        C     0.35294      0.83494      0.844        0
C        C     0.49068      0.92313      0.84037      0
C        C     0.46416      0.90881      0.85255      0
C        C     0.50758      0.9316       0.86292      0
C        C     0.48103      0.91806      0.8751       0
C        C     0.61982      0.975        0.87147      0
C        C     0.5939       0.96701      0.88366      0
C        C     0.63614      0.97937      0.89402      0
C        C     0.61043      0.97225      0.90621      0
C        C     0.74067      0.994        0.90258      0
C        C     0.71714      0.99289      0.91476      0
C        C     0.75528      0.99396      0.92513      0
C        C     0.73219      0.99376      0.93731      0
C        C     0.84486      0.97881      0.93368      0
C        C     0.82536      0.98466      0.94586      0
C        C     0.85676      0.97437      0.95623      0
C        C     0.83788      0.9811       0.96841      0
C        C     0.92519      0.93049      0.96479      0
C        C     0.91106      0.94289      0.97697      0
C        C     0.93354      0.92195      0.98734      0
C        C     0.92019      0.93514      0.99952      0
C        C     0.97609      0.85237      0.99589      0
C        C     0.99401      0.74149      0.32559      0
C        C     0.99351      0.72661      0.34814      0
C        C     0.97526      0.62073      0.3567       0
C        C     0.98182      0.64629      0.36888      0
C        C     0.97036      0.60428      0.37925      0
C        C     0.9778       0.63007      0.39143      0
C        C     0.92361      0.49162      0.3878       0
C        C     0.93666      0.51817      0.39998      0
C        C     0.91467      0.47473      0.41035      0
C        C     0.9285       0.50127      0.42254      0
C        C     0.84265      0.36309      0.41891      0
C        C     0.86127      0.38878      0.43109      0
C        C     0.83028      0.34693      0.44146      0
C        C     0.84954      0.37239      0.45364      0
C        C     0.73797      0.24403      0.45001      0
C        C     0.76089      0.2671       0.46219      0
C        C     0.72303      0.22973      0.47256      0
C        C     0.74639      0.25234      0.48474      0
C        C     0.61683      0.14269      0.48111      0
C        C     0.64245      0.16153      0.4933       0
C        C     0.60034      0.13123      0.50367      0
C        C     0.62619      0.14942      0.51585      0
C        C     0.4876       0.06607      0.51222      0
C        C     0.51415      0.07939      0.5244       0
C        C     0.47072      0.05825      0.53477      0
C        C     0.49725      0.07077      0.54695      0
C        C     0.35923      0.01949      0.54332      0
C        C     0.38487      0.02635      0.55551      0
C        C     0.34311      0.01584      0.56587      0
C        C     0.36851      0.02182      0.57806      0
C        C     0.2406       0.00616      0.57443      0
C        C     0.26356      0.0061       0.58661      0
C        C     0.22637      0.00694      0.59698      0
C        C     0.24886      0.00597      0.60916      0
C        C     0.13992      0.027        0.60553      0
C        C     0.15861      0.02002      0.61771      0
C        C     0.12856      0.03216      0.62808      0
C        C     0.1466       0.02431      0.64026      0
C        C     0.06416      0.08059      0.63664      0
C        C     0.07729      0.06716      0.64882      0
C        C     0.05646      0.08976      0.65919      0
C        C     0.06879      0.07556      0.67137      0
C        C     0.01857      0.16319      0.66774      0
C        C     0.02522      0.14426      0.67992      0
C        C     0.01505      0.17575      0.69029      0
C        C     0.02083      0.15619      0.70247      0
C        C     0.00629      0.26911      0.69884      0
C        C     0.00601      0.24598      0.71103      0
C        C     0.00721      0.28418      0.72139      0
C        C     0.00602      0.26062      0.73358      0
C        C     0.02818      0.39101      0.72995      0
C        C     0.02099      0.36528      0.74213      0
C        C     0.03347      0.40755      0.7525       0
C        C     0.02541      0.38161      0.76468      0
C        C     0.08273      0.52044      0.76105      0
C        C     0.06912      0.4939       0.77324      0
C        C     0.09201      0.53731      0.7836       0
C        C     0.07764      0.51079      0.79579      0
C        C     0.16615      0.64847      0.79216      0
C        C     0.14707      0.62294      0.80434      0
C        C     0.1788       0.66449      0.81471      0
C        C     0.15909      0.63923      0.82689      0
C        C     0.27267      0.76622      0.82326      0
C        C     0.24944      0.74348      0.83544      0
C        C     0.28781      0.78029      0.84581      0
C        C     0.26415      0.75803      0.85799      0
C        C     0.39493      0.86554      0.85437      0
C        C     0.36915      0.84716      0.86655      0
C        C     0.4115       0.87669      0.87692      0
C        C     0.38552      0.85898      0.8891       0
C        C     0.52446      0.93957      0.88547      0
C        C     0.49792      0.92682      0.89765      0
C        C     0.54132      0.94703      0.90802      0
C        C     0.51482      0.93508      0.9202       0
C        C     0.6523       0.98318      0.91657      0
C        C     0.62683      0.97694      0.92876      0
C        C     0.66828      0.98642      0.93912      0
C        C     0.64309      0.98107      0.95131      0
C        C     0.7696       0.99334      0.94768      0
C        C     0.74697      0.99405      0.95986      0
C        C     0.7836       0.99215      0.97023      0
C        C     0.76146      0.99377      0.98241      0
C        C     0.86824      0.96937      0.97878      0
C        C     0.85001      0.97698      0.99096      0
C        C     0.99242      0.71147      0.3707       0
C        C     0.99387      0.73515      0.38288      0
C        C     0.99076      0.69608      0.39325      0
C        C     0.99311      0.72015      0.40543      0
C        C     0.96492      0.58771      0.4018       0
C        C     0.97323      0.6137       0.41398      0
C        C     0.95893      0.57103      0.42435      0
C        C     0.9681       0.59719      0.43653      0
C        C     0.90524      0.45788      0.4329       0
C        C     0.91984      0.48438      0.44509      0
C        C     0.89534      0.44107      0.45545      0
C        C     0.91069      0.4675       0.46764      0
C        C     0.81752      0.33096      0.46401      0
C        C     0.8374       0.35614      0.47619      0
C        C     0.80439      0.31519      0.48656      0
C        C     0.82486      0.34007      0.49874      0
C        C     0.70782      0.21574      0.49511      0
C        C     0.7316       0.23786      0.50729      0
C        C     0.69238      0.20209      0.51766      0
C        C     0.71654      0.2237       0.52984      0
C        C     0.58374      0.1202       0.52622      0
C        C     0.60978      0.13772      0.5384       0
C        C     0.56705      0.10962      0.54877      0
C        C     0.59324      0.12645      0.56095      0
C        C     0.45387      0.05094      0.55732      0
C        C     0.48036      0.06265      0.5695       0
C        C     0.43708      0.04416      0.57987      0
C        C     0.46349      0.05505      0.59205      0
C        C     0.32719      0.01276      0.58842      0
C        C     0.3523       0.01785      0.60061      0
C        C     0.31146      0.01025      0.61097      0
C        C     0.33626      0.01445      0.62316      0
C        C     0.21246      0.0083       0.61953      0
C        C     0.23446      0.00642      0.63171      0
C        C     0.19889      0.01023      0.64208      0
C        C     0.22037      0.00745      0.65426      0
C        C     0.11764      0.03786      0.65063      0
C        C     0.135        0.02915      0.66282      0
C        C     0.10717      0.04411      0.67318      0
C        C     0.12383      0.03454      0.68537      0
C        C     0.04928      0.09941      0.68174      0
C        C     0.0608       0.08446      0.69392      0
C        C     0.04262      0.10953      0.70429      0
C        C     0.05332      0.09384      0.71647      0
C        C     0.01211      0.18869      0.71284      0
C        C     0.01699      0.16853      0.72502      0
C        C     0.00973      0.20199      0.73539      0
C        C     0.01372      0.18125      0.74757      0
C        C     0.0087       0.2995       0.74395      0
C        C     0.00661      0.27554      0.75613      0
C        C     0.01077      0.31506      0.7665       0
C        C     0.00778      0.29072      0.77868      0
C        C     0.0393       0.4242       0.77505      0
C        C     0.03038      0.39808      0.78723      0
C        C     0.04567      0.44093      0.7976       0
C        C     0.0359       0.41467      0.80978      0
C        C     0.10178      0.55414      0.80615      0
C        C     0.08665      0.52768      0.81834      0
C        C     0.11201      0.5709       0.8287       0
C        C     0.09614      0.54453      0.84089      0
C        C     0.19182      0.68033      0.83726      0
C        C     0.17152      0.65536      0.84944      0
C        C     0.2052       0.69595      0.85981      0
C        C     0.18433      0.6713       0.87199      0
C        C     0.30319      0.79404      0.86836      0
C        C     0.27913      0.77229      0.88054      0
C        C     0.3188       0.80745      0.89091      0
C        C     0.29437      0.78623      0.9031       0
C        C     0.42817      0.8874       0.89947      0
C        C     0.40202      0.87037      0.91165      0
C        C     0.44493      0.89766      0.92202      0
C        C     0.41864      0.88134      0.9342       0
C        C     0.55813      0.95396      0.93057      0
C        C     0.53169      0.94283      0.94275      0
C        C     0.57487      0.96036      0.95312      0
C        C     0.54853      0.95006      0.9653       0
C        C     0.68407      0.98909      0.96167      0
C        C     0.65917      0.98464      0.97386      0
C        C     0.69964      0.9912       0.98423      0
C        C     0.67507      0.98764      0.99641      0
C        C     0.79726      0.99038      0.99278      0
C        C     0.98853      0.68045      0.4158       0
C        C     0.99178      0.7049       0.42798      0
C        C     0.98572      0.66462      0.43835      0
C        C     0.98988      0.68941      0.45053      0
C        C     0.95241      0.55427      0.4469       0
C        C     0.96242      0.58057      0.45908      0
C        C     0.94536      0.53745      0.46945      0
C        C     0.9562       0.56386      0.48163      0
C        C     0.88498      0.42433      0.478        0
C        C     0.90106      0.45067      0.49019      0
C        C     0.87417      0.40768      0.50056      0
C        C     0.89096      0.43389      0.51274      0
C        C     0.79091      0.29963      0.50911      0
C        C     0.81194      0.32418      0.52129      0
C        C     0.77708      0.2843       0.53166      0
C        C     0.79866      0.30849      0.54384      0
C        C     0.6767       0.18879      0.54021      0
C        C     0.70123      0.20985      0.5524       0
C        C     0.66082      0.17585      0.56276      0
C        C     0.68569      0.19635      0.57495      0
C        C     0.55027      0.09949      0.57132      0
C        C     0.5766       0.11561      0.5835       0
C        C     0.53343      0.08983      0.59387      0
C        C     0.55986      0.10522      0.60605      0
C        C     0.42036      0.03791      0.60242      0
C        C     0.44666      0.04797      0.6146       0
C        C     0.40373      0.0322       0.62497      0
C        C     0.4299       0.04142      0.63715      0
C        C     0.29596      0.00831      0.63353      0
C        C     0.32042      0.01161      0.64571      0
C        C     0.28069      0.00695      0.65608      0
C        C     0.30479      0.00935      0.66826      0
C        C     0.18568      0.01274      0.66463      0
C        C     0.20661      0.00905      0.67681      0
C        C     0.17283      0.01581      0.68718      0
C        C     0.19319      0.01123      0.69936      0
C        C     0.09715      0.05088      0.69573      0
C        C     0.1131       0.04047      0.70792      0
C        C     0.08761      0.05819      0.71828      0
C        C     0.10282      0.04695      0.73047      0
C        C     0.0365       0.12011      0.72684      0
C        C     0.04636      0.10369      0.73902      0
C        C     0.03092      0.13114      0.74939      0
C        C     0.03993      0.11401      0.76157      0
C        C     0.00793      0.21563      0.75794      0
C        C     0.01102      0.19434      0.77012      0
C        C     0.00671      0.22962      0.78049      0
C        C     0.00889      0.20779      0.79268      0
C        C     0.01342      0.33083      0.78905      0
C        C     0.00952      0.30614      0.80123      0
C        C     0.01663      0.34681      0.8116       0
C        C     0.01184      0.3218       0.82378      0
C        C     0.05258      0.45774      0.82015      0
C        C     0.04197      0.43136      0.83233      0
C        C     0.06         0.4746       0.8427       0
C        C     0.04857      0.44813      0.85488      0
C        C     0.1227       0.58757      0.85125      0
C        C     0.10611      0.56133      0.86344      0
C        C     0.13383      0.60415      0.87381      0
C        C     0.11654      0.57805      0.88599      0
C        C     0.21893      0.71134      0.88236      0
C        C     0.19751      0.68705      0.89454      0
C        C     0.23299      0.72649      0.90491      0
C        C     0.21105      0.70258      0.91709      0
C        C     0.33462      0.82049      0.91346      0
C        C     0.30985      0.79983      0.92565      0
C        C     0.35064      0.83316      0.93601      0
C        C     0.32555      0.81308      0.9482       0
C        C     0.46175      0.90745      0.94457      0
C        C     0.43535      0.89186      0.95675      0
C        C     0.47862      0.91677      0.96712      0
C        C     0.45213      0.90192      0.9793       0
C        C     0.59153      0.96622      0.97567      0
C        C     0.56532      0.95677      0.98785      0
C        C     0.60808      0.97154      0.99822      0
C        C     0.98235      0.6486       0.4609       0
C        C     0.9874       0.67369      0.47308      0
C        C     0.97841      0.6324       0.48345      0
C        C     0.98435      0.65778      0.49563      0
C        C     0.93778      0.52058      0.492        0
C        C     0.94945      0.54707      0.50418      0
C        C     0.9297       0.50369      0.51455      0
C        C     0.94217      0.53022      0.52673      0
C        C     0.86292      0.39114      0.52311      0
C        C     0.8804       0.41718      0.53529      0
C        C     0.85124      0.37472      0.54566      0
C        C     0.8694       0.40058      0.55784      0
C        C     0.76293      0.26923      0.55421      0
C        C     0.78502      0.29303      0.56639      0
C        C     0.74848      0.25443      0.57676      0
C        C     0.77106      0.27781      0.58894      0
C        C     0.64476      0.16329      0.58531      0
C        C     0.66992      0.1832       0.5975       0
C        C     0.62852      0.15113      0.60786      0
C        C     0.65396      0.17042      0.62005      0
C        C     0.51656      0.08066      0.61642      0
C        C     0.54306      0.0953       0.6286       0
C        C     0.49967      0.07197      0.63897      0
C        C     0.52621      0.08584      0.65115      0
C        C     0.38722      0.02704      0.64752      0
C        C     0.41322      0.0354       0.6597       0
C        C     0.37084      0.02244      0.67007      0
C        C     0.39664      0.02992      0.68226      0
C        C     0.26568      0.00616      0.67863      0
C        C     0.28938      0.00765      0.69081      0
C        C     0.25094      0.00595      0.70118      0
C        C     0.27422      0.00654      0.71336      0
C        C     0.16036      0.01945      0.70973      0
C        C     0.18012      0.01398      0.72191      0
C        C     0.14829      0.02366      0.73228      0
C        C     0.16744      0.0173       0.74446      0
C        C     0.07854      0.06601      0.74083      0
C        C     0.093        0.05395      0.75302      0
C        C     0.06997      0.07433      0.76339      0
C        C     0.08366      0.06147      0.77557      0
C        C     0.0259       0.14259      0.77194      0
C        C     0.03405      0.12478      0.78412      0
C        C     0.02142      0.15446      0.79449      0
C        C     0.0287       0.13599      0.80667      0
C        C     0.00606      0.24391      0.80304      0
C        C     0.00734      0.22159      0.81523      0
C        C     0.00599      0.25851      0.82559      0
C        C     0.00636      0.2357       0.83778      0
C        C     0.0204       0.36296      0.83415      0
C        C     0.01472      0.33766      0.84633      0
C        C     0.02474      0.37927      0.8567       0
C        C     0.01818      0.35371      0.86888      0
C        C     0.06794      0.49148      0.86525      0
C        C     0.05569      0.46496      0.87743      0
C        C     0.07639      0.50838      0.8878       0
C        C     0.06334      0.48183      0.89998      0
C        C     0.14538      0.6206       0.89636      0
C        C     0.12741      0.59469      0.90854      0
C        C     0.15735      0.63691      0.91891      0
C        C     0.13873      0.61122      0.93109      0
C        C     0.24736      0.74137      0.92746      0
C        C     0.22492      0.71787      0.93964      0
C        C     0.26203      0.75597      0.95001      0
C        C     0.23911      0.7329       0.96219      0
C        C     0.36683      0.84544      0.95856      0
C        C     0.34146      0.82597      0.97075      0
C        C     0.38317      0.85731      0.98111      0
C        C     0.35755      0.83847      0.9933       0
C        C     0.49551      0.9256       0.98967      0
C        C     0.99393      0.73727      0.47489      0
C        C     0.99326      0.72231      0.49744      0
C        C     0.99405      0.74569      0.50963      0
C        C     0.97392      0.61605      0.506        0
C        C     0.98073      0.64168      0.51818      0
C        C     0.96886      0.59956      0.52855      0
C        C     0.97655      0.62541      0.54073      0
C        C     0.92111      0.48679      0.5371       0
C        C     0.93438      0.51334      0.54928      0
C        C     0.91203      0.46991      0.55965      0
C        C     0.92608      0.49645      0.57184      0
C        C     0.83915      0.35845      0.56821      0
C        C     0.85796      0.38409      0.58039      0
C        C     0.82667      0.34235      0.59076      0
C        C     0.84611      0.36773      0.60294      0
C        C     0.73373      0.23991      0.59931      0
C        C     0.75678      0.26285      0.61149      0
C        C     0.71871      0.2257       0.62186      0
C        C     0.74219      0.24817      0.63404      0
C        C     0.61213      0.13937      0.63042      0
C        C     0.63782      0.15803      0.6426       0
C        C     0.59561      0.12803      0.65297      0
C        C     0.62151      0.14604      0.66515      0
C        C     0.48277      0.06378      0.66152      0
C        C     0.50932      0.07687      0.6737       0
C        C     0.4659       0.05611      0.68407      0
C        C     0.49242      0.0684       0.69625      0
C        C     0.3546       0.01839      0.69262      0
C        C     0.38018      0.025        0.70481      0
C        C     0.33854      0.0149       0.71517      0
C        C     0.36386      0.02063      0.72736      0
C        C     0.2365       0.00632      0.72373      0
C        C     0.25933      0.006        0.73591      0
C        C     0.22236      0.00727      0.74628      0
C        C     0.24472      0.00604      0.75846      0
C        C     0.13663      0.02842      0.75483      0
C        C     0.15514      0.02119      0.76701      0
C        C     0.1254       0.03373      0.77738      0
C        C     0.14324      0.02563      0.78956      0
C        C     0.06191      0.08316      0.78594      0
C        C     0.07481      0.06951      0.79812      0
C        C     0.05435      0.09247      0.80849      0
C        C     0.06646      0.07805      0.82067      0
C        C     0.01751      0.16674      0.81704      0
C        C     0.02391      0.14763      0.82922      0
C        C     0.01415      0.17941      0.83959      0
C        C     0.01967      0.15968      0.85177      0
C        C     0.00649      0.27339      0.84814      0
C        C     0.00596      0.25013      0.86033      0
C        C     0.00758      0.28853      0.8707       0
C        C     0.00613      0.26485      0.88288      0
C        C     0.02964      0.39572      0.87925      0
C        C     0.0222       0.36993      0.89143      0
C        C     0.03508      0.41229      0.9018       0
C        C     0.02677      0.3863       0.91398      0
C        C     0.08533      0.52527      0.91035      0
C        C     0.0715       0.49873      0.92254      0
C        C     0.09476      0.54212      0.9329       0
C        C     0.08016      0.51562      0.94509      0
C        C     0.16972      0.65307      0.94146      0
C        C     0.15046      0.62761      0.95364      0
C        C     0.18248      0.66904      0.96401      0
C        C     0.1626       0.64386      0.97619      0
C        C     0.27697      0.77027      0.97256      0
C        C     0.25361      0.74766      0.98474      0
C        C     0.29218      0.78426      0.99511      0
C        C     0.99201      0.70709      0.52         0
C        C     0.99371      0.73089      0.53218      0
C        C     0.99018      0.69163      0.54255      0
C        C     0.99279      0.71582      0.55473      0
C        C     0.96327      0.58295      0.5511       0
C        C     0.97182      0.60899      0.56328      0
C        C     0.95712      0.56625      0.57365      0
C        C     0.96653      0.59245      0.58583      0
C        C     0.90246      0.45307      0.5822       0
C        C     0.91727      0.47956      0.59439      0
C        C     0.89243      0.43628      0.60475      0
C        C     0.90799      0.46269      0.61694      0
C        C     0.81381      0.32643      0.61331      0
C        C     0.83385      0.35153      0.62549      0
C        C     0.80058      0.31072      0.63586      0
C        C     0.8212       0.33551      0.64804      0
C        C     0.70343      0.21181      0.64441      0
C        C     0.72733      0.23378      0.65659      0
C        C     0.68792      0.19826      0.66696      0
C        C     0.71219      0.21971      0.67914      0
C        C     0.57898      0.11713      0.67552      0
C        C     0.60507      0.13446      0.6877       0
C        C     0.56226      0.10668      0.69807      0
C        C     0.5885       0.12331      0.71025      0
C        C     0.44906      0.04895      0.70662      0
C        C     0.47554      0.06043      0.7188       0
C        C     0.43229      0.04232      0.72917      0
C        C     0.45868      0.05297      0.74135      0
C        C     0.32267      0.01198      0.73772      0
C        C     0.3477       0.01682      0.74991      0
C        C     0.30701      0.00964      0.76028      0
C        C     0.33172      0.01358      0.77246      0
C        C     0.20855      0.00879      0.76883      0
C        C     0.2304       0.00666      0.78101      0
C        C     0.19508      0.01089      0.79138      0
C        C     0.2164       0.00785      0.80356      0
C        C     0.1146       0.03959      0.79993      0
C        C     0.13176      0.03063      0.81212      0
C        C     0.10426      0.04599      0.82248      0
C        C     0.12072      0.03618      0.83467      0
C        C     0.04732      0.10226      0.83104      0
C        C     0.05861      0.08709      0.84322      0
C        C     0.04082      0.11251      0.85359      0
C        C     0.05128      0.09661      0.86577      0
C        C     0.01137      0.19245      0.86214      0
C        C     0.016        0.17212      0.87432      0
C        C     0.00916      0.20585      0.88469      0
C        C     0.01289      0.18495      0.89687      0
C        C     0.00924      0.30392      0.89325      0
C        C     0.00689      0.27985      0.90543      0
C        C     0.01147      0.31955      0.9158       0
C        C     0.00822      0.2951       0.92798      0
C        C     0.04107      0.42897      0.92435      0
C        C     0.0319       0.40281      0.93653      0
C        C     0.04759      0.44573      0.9469       0
C        C     0.03758      0.41943      0.95908      0
C        C     0.10466      0.55893      0.95545      0
C        C     0.08931      0.5325       0.96764      0
C        C     0.11502      0.57567      0.978        0
C        C     0.09894      0.54933      0.99019      0
C        C     0.19561      0.68481      0.98656      0
C        C     0.17514      0.65993      0.99874      0
C        C     0.98779      0.67595      0.5651       0
C        C     0.9913       0.7005       0.57728      0
C        C     0.98482      0.66006      0.58765      0
C        C     0.98923      0.68494      0.59983      0
C        C     0.95045      0.54947      0.5962       0
C        C     0.9607       0.5758       0.60838      0
C        C     0.94324      0.53263      0.61875      0
C        C     0.95433      0.55907      0.63093      0
C        C     0.88194      0.41956      0.6273       0
C        C     0.89822      0.44586      0.63949      0
C        C     0.871        0.40294      0.64986      0
C        C     0.88799      0.4291       0.66204      0
C        C     0.78699      0.29522      0.65841      0
C        C     0.80818      0.31967      0.67059      0
C        C     0.77307      0.27997      0.68096      0
C        C     0.7948       0.30405      0.69314      0
C        C     0.67219      0.18506      0.68951      0
C        C     0.69681      0.20596      0.7017       0
C        C     0.65625      0.17222      0.71206      0
C        C     0.6812       0.19255      0.72425      0
C        C     0.54546      0.09668      0.72062      0
C        C     0.57183      0.1126       0.7328       0
C        C     0.52862      0.08716      0.74317      0
C        C     0.55507      0.10234      0.75535      0
C        C     0.4156       0.03622      0.75172      0
C        C     0.44187      0.04604      0.7639       0
C        C     0.399        0.03067      0.77427      0
C        C     0.42513      0.03964      0.78645      0
C        C     0.29157      0.00786      0.78283      0
C        C     0.31593      0.01091      0.79501      0
C        C     0.27637      0.00666      0.80538      0
C        C     0.30036      0.0088       0.81756      0
C        C     0.18197      0.01356      0.81393      0
C        C     0.20274      0.00962      0.82611      0
C        C     0.16922      0.0168       0.83648      0
C        C     0.18942      0.01196      0.84866      0
C        C     0.09437      0.05292      0.84503      0
C        C     0.11011      0.04227      0.85722      0
C        C     0.08497      0.06037      0.86758      0
C        C     0.09996      0.04889      0.87977      0
C        C     0.03485      0.12322      0.87614      0
C        C     0.04447      0.1066       0.88832      0
C        C     0.02943      0.13437      0.89869      0
C        C     0.0382       0.11705      0.91087      0
C        C     0.00752      0.2196       0.90724      0
C        C     0.01035      0.19815      0.91942      0
C        C     0.00646      0.23367      0.92979      0
C        C     0.00839      0.2117       0.94198      0
C        C     0.01428      0.33538      0.93835      0
C        C     0.01012      0.31059      0.95053      0
C        C     0.01765      0.3514       0.9609       0
C        C     0.0126       0.32631      0.97308      0
C        C     0.05464      0.46255      0.96945      0
C        C     0.0438       0.43614      0.98163      0
C        C     0.06222      0.47942      0.992        0
C        C     0.98128      0.64399      0.6102       0
C        C     0.98658      0.66917      0.62238      0
C        C     0.97718      0.62774      0.63275      0
C        C     0.98337      0.65319      0.64493      0
C        C     0.93552      0.51576      0.6413       0
C        C     0.94742      0.54226      0.65348      0
C        C     0.92729      0.49886      0.66385      0
C        C     0.94         0.5254       0.67603      0
C        C     0.85962      0.38643      0.67241      0
C        C     0.8773       0.41243      0.68459      0
C        C     0.84783      0.37006      0.69496      0
C        C     0.86617      0.39585      0.70714      0
C        C     0.75883      0.26497      0.70351      0
C        C     0.78107      0.28866      0.71569      0
C        C     0.74429      0.25025      0.72606      0
C        C     0.76701      0.27351      0.73824      0
C        C     0.64013      0.15978      0.73461      0
C        C     0.66538      0.17951      0.7468       0
C        C     0.62385      0.14772      0.75716      0
C        C     0.64936      0.16684      0.76935      0
C        C     0.51173      0.07812      0.76572      0
C        C     0.53825      0.09255      0.7779       0
C        C     0.49484      0.06958      0.78827      0
C        C     0.52138      0.08323      0.80045      0
C        C     0.38252      0.02567      0.79682      0
C        C     0.40847      0.03378      0.80901      0
C        C     0.36618      0.02122      0.81937      0
C        C     0.39192      0.02846      0.83156      0
C        C     0.26144      0.00604      0.82793      0
C        C     0.28503      0.00728      0.84011      0
C        C     0.24679      0.006        0.85048      0
C        C     0.26994      0.00633      0.86266      0
C        C     0.15687      0.0206       0.85903      0
C        C     0.17646      0.01488      0.87121      0
C        C     0.14492      0.02496      0.88158      0
C        C     0.16388      0.01836      0.89376      0
C        C     0.07604      0.06833      0.89014      0
C        C     0.09028      0.05605      0.90232      0
C        C     0.06762      0.0768       0.91269      0
C        C     0.08108      0.06372      0.92487      0
C        C     0.02456      0.14594      0.92124      0
C        C     0.03246      0.12794      0.93342      0
C        C     0.02024      0.15793      0.94379      0
C        C     0.02728      0.13928      0.95597      0
C        C     0.00598      0.24805      0.95234      0
C        C     0.007        0.22559      0.96453      0
C        C     0.00607      0.26273      0.97489      0
C        C     0.00618      0.2398       0.98708      0
C        C     0.02159      0.3676       0.98345      0
C        C     0.01565      0.34222      0.99563      0
C        C     0.99379      0.73302      0.62419      0
C        C     0.99296      0.71799      0.64674      0
C        C     0.99401      0.74149      0.65893      0
C        C     0.97253      0.61135      0.6553       0
C        C     0.9796       0.63704      0.66748      0
C        C     0.96732      0.59482      0.67785      0
C        C     0.97526      0.62073      0.69003      0
C        C     0.91856      0.48197      0.6864       0
C        C     0.93206      0.50852      0.69859      0
C        C     0.90934      0.4651       0.70895      0
C        C     0.92361      0.49162      0.72114      0
C        C     0.83563      0.35384      0.71751      0
C        C     0.85462      0.3794       0.72969      0
C        C     0.82303      0.33778      0.74006      0
C        C     0.84265      0.36309      0.75224      0
C        C     0.72947      0.23582      0.74861      0
C        C     0.75264      0.25863      0.76079      0
C        C     0.71437      0.2217       0.77116      0
C        C     0.73797      0.24403      0.78334      0
C        C     0.60742      0.13609      0.77972      0
C        C     0.63317      0.15456      0.7919       0
C        C     0.59087      0.12487      0.80227      0
C        C     0.61683      0.14269      0.81445      0
C        C     0.47795      0.06154      0.81082      0
C        C     0.50449      0.0744       0.823        0
C        C     0.46108      0.05401      0.83337      0
C        C     0.4876       0.06607      0.84555      0
C        C     0.35         0.01733      0.84192      0
C        C     0.3755       0.02369      0.85411      0
C        C     0.33399      0.01401      0.86447      0
C        C     0.35923      0.01949      0.87666      0
C        C     0.23243      0.00653      0.87303      0
C        C     0.25513      0.00595      0.88521      0
C        C     0.21838      0.00764      0.89558      0
C        C     0.2406       0.00616      0.90776      0
C        C     0.13338      0.02988      0.90413      0
C        C     0.1517       0.0224       0.91631      0
C        C     0.12227      0.03535      0.92668      0
C        C     0.13992      0.027        0.93887      0
C        C     0.0597       0.08577      0.93524      0
C        C     0.07237      0.0719       0.94742      0
C        C     0.05229      0.09522      0.95779      0
C        C     0.06416      0.08059      0.96997      0
C        C     0.01649      0.17032      0.96634      0
C        C     0.02264      0.15103      0.97852      0
C        C     0.0133       0.1831       0.98889      0
C        C     0.00674      0.27769      0.99744      0
C        C     0.99154      0.7027       0.6693       0
C        C     0.99351      0.72661      0.68148      0
C        C     0.98956      0.68718      0.69185      0
C        C     0.99242      0.71147      0.70403      0
C        C     0.96157      0.57819      0.7004       0
C        C     0.97036      0.60428      0.71258      0
C        C     0.95527      0.56146      0.72295      0
C        C     0.96492      0.58771      0.73513      0
C        C     0.89964      0.44826      0.7315       0
C        C     0.91467      0.47473      0.74369      0
C        C     0.88948      0.43149      0.75405      0
C        C     0.90524      0.45788      0.76624      0
C        C     0.81006      0.32192      0.76261      0
C        C     0.83028      0.34693      0.77479      0
C        C     0.79673      0.30627      0.78516      0
C        C     0.81752      0.33096      0.79734      0
C        C     0.69903      0.2079       0.79371      0
C        C     0.72303      0.22973      0.80589      0
C        C     0.68345      0.19445      0.81626      0
C        C     0.70782      0.21574      0.82845      0
C        C     0.57421      0.1141       0.82482      0
C        C     0.60034      0.13123      0.837        0
C        C     0.55747      0.10377      0.84737      0
C        C     0.58374      0.1202       0.85955      0
C        C     0.44427      0.047        0.85592      0
C        C     0.47072      0.05825      0.8681       0
C        C     0.42751      0.04052      0.87847      0
C        C     0.45387      0.05094      0.89065      0
C        C     0.31817      0.01125      0.88702      0
C        C     0.34311      0.01584      0.89921      0
C        C     0.30257      0.00907      0.90958      0
C        C     0.32719      0.01276      0.92176      0
C        C     0.20467      0.00933      0.91813      0
C        C     0.22637      0.00694      0.93031      0
C        C     0.1913       0.01159      0.94068      0
C        C     0.21246      0.0083       0.95286      0
C        C     0.1116       0.04137      0.94923      0
C        C     0.12856      0.03216      0.96142      0
C        C     0.10138      0.04791      0.97178      0
C        C     0.11764      0.03786      0.98397      0
C        C     0.04541      0.10514      0.98034      0
C        C     0.05646      0.08976      0.99252      0
C        C     0.987        0.67143      0.7144       0
C        C     0.99076      0.69608      0.72658      0
C        C     0.98387      0.65549      0.73695      0
C        C     0.98853      0.68045      0.74913      0
C        C     0.94844      0.54466      0.7455       0
C        C     0.95893      0.57103      0.75768      0
C        C     0.94109      0.52781      0.76805      0
C        C     0.95241      0.55427      0.78023      0
C        C     0.87886      0.4148       0.7766       0
C        C     0.89534      0.44107      0.78879      0
C        C     0.86779      0.39821      0.79916      0
C        C     0.88498      0.42433      0.81134      0
C        C     0.78305      0.29084      0.80771      0
C        C     0.80439      0.31519      0.81989      0
C        C     0.76904      0.27566      0.83026      0
C        C     0.79091      0.29963      0.84244      0
C        C     0.66765      0.18135      0.83881      0
C        C     0.69238      0.20209      0.851        0
C        C     0.65166      0.16863      0.86136      0
C        C     0.6767       0.18879      0.87355      0
C        C     0.54066      0.09392      0.86992      0
C        C     0.56705      0.10962      0.8821       0
C        C     0.52379      0.08453      0.89247      0
C        C     0.55027      0.09949      0.90465      0
C        C     0.41084      0.03458      0.90102      0
C        C     0.43708      0.04416      0.9132       0
C        C     0.39428      0.02919      0.92357      0
C        C     0.42036      0.03791      0.93575      0
C        C     0.2872       0.00746      0.93213      0
C        C     0.31146      0.01025      0.94431      0
C        C     0.27208      0.00643      0.95468      0
C        C     0.29596      0.00831      0.96686      0
C        C     0.17829      0.01442      0.96323      0
C        C     0.19889      0.01023      0.97541      0
C        C     0.16565      0.01782      0.98578      0
C        C     0.18568      0.01274      0.99796      0
C        C     0.09164      0.05499      0.99433      0
C        C     0.99404      0.74359      0.75094      0
C        C     0.98017      0.63936      0.7595       0
C        C     0.98572      0.66462      0.77168      0
C        C     0.97591      0.62307      0.78205      0
C        C     0.98235      0.6486       0.79423      0
C        C     0.93322      0.51093      0.7906       0
C        C     0.94536      0.53745      0.80278      0
C        C     0.92485      0.49403      0.81315      0
C        C     0.93778      0.52058      0.82533      0
C        C     0.8563       0.38174      0.82171      0
C        C     0.87417      0.40768      0.83389      0
C        C     0.84438      0.36541      0.84426      0
C        C     0.86292      0.39114      0.85644      0
C        C     0.75471      0.26074      0.85281      0
C        C     0.77708      0.2843       0.86499      0
C        C     0.74009      0.2461       0.87536      0
C        C     0.76293      0.26923      0.88754      0
C        C     0.6355       0.15629      0.88391      0
C        C     0.66082      0.17585      0.8961       0
C        C     0.61917      0.14436      0.90646      0
C        C     0.64476      0.16329      0.91865      0
C        C     0.50691      0.07563      0.91502      0
C        C     0.53343      0.08983      0.9272       0
C        C     0.49001      0.06723      0.93757      0
C        C     0.51656      0.08066      0.94975      0
C        C     0.37784      0.02434      0.94612      0
C        C     0.40373      0.0322       0.95831      0
C        C     0.36154      0.02005      0.96867      0
C        C     0.38722      0.02704      0.98086      0
C        C     0.25722      0.00597      0.97723      0
C        C     0.28069      0.00695      0.98941      0
C        C     0.24265      0.00609      0.99978      0
C        C     0.99361      0.72875      0.77349      0
C        C     0.99261      0.71365      0.79604      0
C        C     0.99393      0.73727      0.80823      0
C        C     0.9711       0.60664      0.8046       0
C        C     0.97841      0.6324       0.81678      0
C        C     0.96573      0.59008      0.82715      0
C        C     0.97392      0.61605      0.83933      0
C        C     0.91598      0.47714      0.8357       0
C        C     0.9297       0.50369      0.84789      0
C        C     0.90662      0.46028      0.85825      0
C        C     0.92111      0.48679      0.87044      0
C        C     0.83207      0.34923      0.86681      0
C        C     0.85124      0.37472      0.87899      0
C        C     0.81937      0.33323      0.88936      0
C        C     0.83915      0.35845      0.90154      0
C        C     0.72518      0.23175      0.89791      0
C        C     0.74848      0.25443      0.91009      0
C        C     0.71001      0.21772      0.92046      0
C        C     0.73373      0.23991      0.93264      0
C        C     0.60271      0.13284      0.92902      0
C        C     0.62852      0.15113      0.9412       0
C        C     0.58612      0.12175      0.95157      0
C        C     0.61213      0.13937      0.96375      0
C        C     0.47313      0.05933      0.96012      0
C        C     0.49967      0.07197      0.9723       0
C        C     0.45627      0.05195      0.98267      0
C        C     0.48277      0.06378      0.99485      0
C        C     0.3454       0.01633      0.99122      0
C        C     0.99103      0.69829      0.8186       0
C        C     0.99326      0.72231      0.83078      0
C        C     0.98888      0.6827       0.84115      0
C        C     0.99201      0.70709      0.85333      0
C        C     0.95982      0.57342      0.8497       0
C        C     0.96886      0.59956      0.86188      0
C        C     0.95337      0.55667      0.87225      0
C        C     0.96327      0.58295      0.88443      0
C        C     0.89679      0.44347      0.8808       0
C        C     0.91203      0.46991      0.89299      0
C        C     0.88649      0.42672      0.90335      0
C        C     0.90246      0.45307      0.91554      0
C        C     0.80629      0.31743      0.91191      0
C        C     0.82667      0.34235      0.92409      0
C        C     0.79286      0.30184      0.93446      0
C        C     0.81381      0.32643      0.94664      0
C        C     0.6946       0.20402      0.94301      0
C        C     0.71871      0.2257       0.95519      0
C        C     0.67896      0.19067      0.96556      0
C        C     0.70343      0.21181      0.97775      0
C        C     0.56944      0.1111       0.97412      0
C        C     0.59561      0.12803      0.9863       0
C        C     0.55267      0.10091      0.99667      0
C        C     0.98616      0.6669       0.8637       0
C        C     0.99018      0.69163      0.87588      0
C        C     0.98287      0.6509       0.88625      0
C        C     0.98779      0.67595      0.89843      0
C        C     0.9464       0.53985      0.8948       0
C        C     0.95712      0.56625      0.90698      0
C        C     0.9389       0.52299      0.91735      0
C        C     0.95045      0.54947      0.92953      0
C        C     0.87574      0.41005      0.9259       0
C        C     0.89243      0.43628      0.93809      0
C        C     0.86455      0.39349      0.94846      0
C        C     0.88194      0.41956      0.96064      0
C        C     0.77908      0.28648      0.95701      0
C        C     0.80058      0.31072      0.96919      0
C        C     0.76497      0.27137      0.97956      0
C        C     0.78699      0.29522      0.99174      0
C        C     0.6631       0.17768      0.98811      0
C        C     0.99398      0.73938      0.90024      0
C        C     0.97901      0.63472      0.9088       0
C        C     0.98482      0.66006      0.92098      0
C        C     0.97459      0.61839      0.93135      0
C        C     0.98128      0.64399      0.94353      0
C        C     0.93088      0.5061       0.9399       0
C        C     0.94324      0.53263      0.95208      0
C        C     0.92236      0.48921      0.96245      0
C        C     0.93552      0.51576      0.97463      0
C        C     0.85293      0.37706      0.97101      0
C        C     0.871        0.40294      0.98319      0
C        C     0.84091      0.36077      0.99356      0
C        C     0.99339      0.72446      0.92279      0
C        C     0.99222      0.70928      0.94535      0
C        C     0.99379      0.73302      0.95753      0
C        C     0.96962      0.60192      0.9539       0
C        C     0.97718      0.62774      0.96608      0
C        C     0.9641       0.58533      0.97645      0
C        C     0.97253      0.61135      0.98863      0
C        C     0.91335      0.47232      0.985        0
C        C     0.92729      0.49886      0.99719      0
C        C     0.99048      0.69386      0.9679       0
C        C     0.99296      0.71799      0.98008      0
C        C     0.98816      0.6782       0.99045      0
C        C     0.95803      0.56864      0.999        0


