data_SWNT-1-23

_audit_creation_method RASPA-1.0
_audit_creation_date 2012-2-4
_audit_author_name 'David Dubbeldam'

_cell_length_a    21.7573
_cell_length_b    21.7573
_cell_length_c    100.178
_cell_angle_alpha 90
_cell_angle_beta  90
_cell_angle_gamma 120
_cell_volume      41068.9

_symmetry_cell_setting          triclinic
_symmetry_space_group_name_Hall 'P 1'
_symmetry_space_group_name_H-M  'P 1'
_symmetry_Int_Tables_number     1

_symmetry_equiv_pos_as_xyz 'x,y,z'

loop_
_atom_site_label
_atom_site_type_symbol
_atom_site_fract_x
_atom_site_fract_y
_atom_site_fract_z
_atom_site_charge
C        C     0.95425      0.88283      1e-05        0
C        C     0.98559      0.78919      0.00091      0
C        C     0.92559      0.92053      0.00664      0
C        C     0.92422      0.92193      0.0208       0
C        C     0.9738       0.84002      0.00754      0
C        C     0.97312      0.84201      0.02171      0
C        C     0.98495      0.79364      0.02924      0
C        C     0.9846       0.79586      0.04341      0
C        C     0.74425      0.98853      0.00483      0
C        C     0.74184      0.98853      0.01899      0
C        C     0.84722      0.97123      0.00573      0
C        C     0.84527      0.97195      0.0199       0
C        C     0.88735      0.95149      0.02743      0
C        C     0.88566      0.95254      0.0416       0
C        C     0.95217      0.88625      0.02834      0
C        C     0.95112      0.88795      0.0425       0
C        C     0.9717       0.84595      0.05004      0
C        C     0.97097      0.84791      0.0642       0
C        C     0.98853      0.74509      0.06511      0
C        C     0.49489      0.9205       0.00302      0
C        C     0.49211      0.91908      0.01718      0
C        C     0.62396      0.97122      0.00392      0
C        C     0.62127      0.97048      0.01809      0
C        C     0.6819       0.98361      0.02562      0
C        C     0.67932      0.98321      0.03979      0
C        C     0.79508      0.98473      0.02653      0
C        C     0.79287      0.98507      0.04069      0
C        C     0.84132      0.97336      0.04823      0
C        C     0.83933      0.97404      0.06239      0
C        C     0.92144      0.92471      0.04913      0
C        C     0.92003      0.92607      0.0633       0
C        C     0.94896      0.8913       0.07083      0
C        C     0.94786      0.89295      0.085        0
C        C     0.98387      0.80026      0.07174      0
C        C     0.98348      0.80244      0.0859       0
C        C     0.98849      0.74987      0.09344      0
C        C     0.98845      0.75226      0.1076       0
C        C     0.24695      0.73538      0.00121      0
C        C     0.24458      0.73295      0.01538      0
C        C     0.36618      0.83999      0.00212      0
C        C     0.36351      0.83799      0.01628      0
C        C     0.42579      0.88107      0.02382      0
C        C     0.42305      0.87933      0.03798      0
C        C     0.55582      0.94822      0.02472      0
C        C     0.55307      0.94711      0.03888      0
C        C     0.61589      0.96895      0.04642      0
C        C     0.61319      0.96817      0.06058      0
C        C     0.737        0.98846      0.04732      0
C        C     0.73457      0.98841      0.06149      0
C        C     0.7884       0.98569      0.06902      0
C        C     0.78616      0.98599      0.08319      0
C        C     0.88222      0.9546       0.06993      0
C        C     0.88049      0.95561      0.08409      0
C        C     0.91717      0.92876      0.09163      0
C        C     0.91572      0.93008      0.10579      0
C        C     0.96947      0.85178      0.09253      0
C        C     0.96869      0.8537       0.1067       0
C        C     0.98265      0.80678      0.11423      0
C        C     0.98222      0.80894      0.1284       0
C        C     0.06818      0.48194      0.01357      0
C        C     0.14566      0.61409      0.00031      0
C        C     0.14376      0.61139      0.01447      0
C        C     0.19035      0.67242      0.02201      0
C        C     0.18821      0.66982      0.03617      0
C        C     0.30102      0.78691      0.02291      0
C        C     0.29849      0.78466      0.03708      0
C        C     0.35819      0.83396      0.04461      0
C        C     0.35554      0.83193      0.05878      0
C        C     0.48656      0.9162       0.04552      0
C        C     0.48379      0.91475      0.05968      0
C        C     0.54754      0.94485      0.06722      0
C        C     0.54478      0.94369      0.08138      0
C        C     0.67415      0.98236      0.06812      0
C        C     0.67155      0.98192      0.08228      0
C        C     0.72969      0.98825      0.08982      0
C        C     0.72723      0.98815      0.10398      0
C        C     0.83531      0.97535      0.09072      0
C        C     0.83329      0.97598      0.10489      0
C        C     0.87698      0.95759      0.11242      0
C        C     0.87521      0.95855      0.12659      0
C        C     0.94561      0.89622      0.11333      0
C        C     0.94446      0.89784      0.12749      0
C        C     0.9671       0.85751      0.13503      0
C        C     0.96627      0.85939      0.14919      0
C        C     0.98831      0.75699      0.13593      0
C        C     0.98822      0.75935      0.1501       0
C        C     0.01201      0.23596      0.01176      0
C        C     0.0232       0.35377      0.01266      0
C        C     0.04113      0.41575      0.0202       0
C        C     0.04019      0.41302      0.03436      0
C        C     0.10162      0.5457       0.0211       0
C        C     0.10002      0.54294      0.03527      0
C        C     0.13998      0.60598      0.0428       0
C        C     0.13811      0.60327      0.05697      0
C        C     0.23987      0.72805      0.04371      0
C        C     0.23752      0.72559      0.05787      0
C        C     0.29344      0.78013      0.06541      0
C        C     0.29093      0.77785      0.07957      0
C        C     0.41757      0.8758       0.06631      0
C        C     0.41484      0.87403      0.08048      0
C        C     0.47824      0.91178      0.08801      0
C        C     0.47547      0.91028      0.10218      0
C        C     0.60778      0.96655      0.08891      0
C        C     0.60507      0.96572      0.10308      0
C        C     0.66634      0.98097      0.11061      0
C        C     0.66373      0.98048      0.12478      0
C        C     0.78164      0.98652      0.11152      0
C        C     0.77937      0.98676      0.12568      0
C        C     0.82921      0.9772       0.13322      0
C        C     0.82715      0.97779      0.14738      0
C        C     0.91278      0.93269      0.13412      0
C        C     0.91129      0.93397      0.14829      0
C        C     0.94213      0.90104      0.15582      0
C        C     0.94094      0.90261      0.16999      0
C        C     0.98129      0.81322      0.15673      0
C        C     0.98081      0.81534      0.17089      0
C        C     0.98799      0.76404      0.17843      0
C        C     0.98785      0.76637      0.19259      0
C        C     0.09174      0.06351      0.00995      0
C        C     0.03541      0.13687      0.01086      0
C        C     0.01969      0.18255      0.01839      0
C        C     0.0202       0.18044      0.03256      0
C        C     0.01316      0.29177      0.01929      0
C        C     0.01294      0.28926      0.03346      0
C        C     0.02202      0.34848      0.04099      0
C        C     0.02145      0.34585      0.05516      0
C        C     0.06561      0.47639      0.0419       0
C        C     0.06435      0.47362      0.05606      0
C        C     0.09686      0.53741      0.0636       0
C        C     0.0953       0.53464      0.07776      0
C        C     0.18395      0.6646       0.0645       0
C        C     0.18184      0.66198      0.07867      0
C        C     0.23286      0.72065      0.0862       0
C        C     0.23054      0.71818      0.10037      0
C        C     0.35024      0.82784      0.08711      0
C        C     0.3476       0.82577      0.10127      0
C        C     0.40938      0.87043      0.10881      0
C        C     0.40665      0.86862      0.12297      0
C        C     0.53925      0.94134      0.10971      0
C        C     0.53648      0.94014      0.12388      0
C        C     0.59965      0.96401      0.13141      0
C        C     0.59693      0.96314      0.14558      0
C        C     0.7223       0.98789      0.13231      0
C        C     0.71983      0.98775      0.14648      0
C        C     0.7748       0.9872       0.15401      0
C        C     0.7725       0.9874       0.16818      0
C        C     0.87163      0.96044      0.15492      0
C        C     0.86983      0.96136      0.16908      0
C        C     0.90826      0.93649      0.17662      0
C        C     0.90673      0.93773      0.19078      0
C        C     0.96459      0.86313      0.17752      0
C        C     0.96372      0.86498      0.19169      0
C        C     0.9798       0.81956      0.19922      0
C        C     0.97927      0.82165      0.21339      0
C        C     0.28514      0.0126       0.00814      0
C        C     0.17699      0.02109      0.00905      0
C        C     0.13199      0.03774      0.01658      0
C        C     0.13382      0.03685      0.03075      0
C        C     0.06026      0.09582      0.01749      0
C        C     0.06147      0.09427      0.03165      0
C        C     0.03716      0.13318      0.03919      0
C        C     0.03805      0.13135      0.05335      0
C        C     0.01231      0.23131      0.04009      0
C        C     0.01248      0.229        0.05426      0
C        C     0.01254      0.28427      0.06179      0
C        C     0.01236      0.28178      0.07596      0
C        C     0.03834      0.40756      0.06269      0
C        C     0.03744      0.40484      0.07686      0
C        C     0.06186      0.46808      0.08439      0
C        C     0.06064      0.46531      0.09856      0
C        C     0.1344       0.59784      0.0853       0
C        C     0.13257      0.59511      0.09946      0
C        C     0.17765      0.65674      0.107        0
C        C     0.17557      0.65411      0.12116      0
C        C     0.28593      0.77327      0.1079       0
C        C     0.28344      0.77096      0.12207      0
C        C     0.34234      0.82162      0.1296       0
C        C     0.33972      0.81952      0.14377      0
C        C     0.46993      0.90725      0.13051      0
C        C     0.46716      0.90571      0.14467      0
C        C     0.53095      0.93771      0.15221      0
C        C     0.52818      0.93647      0.16637      0
C        C     0.65849      0.97945      0.15311      0
C        C     0.65586      0.9789       0.16728      0
C        C     0.71486      0.9874       0.17481      0
C        C     0.71236      0.9872       0.18898      0
C        C     0.82301      0.97891      0.17571      0
C        C     0.82092      0.97945      0.18988      0
C        C     0.86618      0.96315      0.19741      0
C        C     0.86433      0.96403      0.21158      0
C        C     0.93853      0.90573      0.19832      0
C        C     0.9373       0.90727      0.21248      0
C        C     0.96195      0.86865      0.22002      0
C        C     0.96104      0.87046      0.23418      0
C        C     0.98752      0.771        0.22092      0
C        C     0.98733      0.77331      0.23509      0
C        C     0.53838      0.09741      0.00633      0
C        C     0.40852      0.03866      0.00724      0
C        C     0.34677      0.02165      0.01477      0
C        C     0.34941      0.02222      0.02894      0
C        C     0.22981      0.01242      0.01568      0
C        C     0.23212      0.01225      0.02984      0
C        C     0.18118      0.02002      0.03738      0
C        C     0.18329      0.01951      0.05154      0
C        C     0.09481      0.06105      0.03828      0
C        C     0.09637      0.05984      0.05245      0
C        C     0.06395      0.0912       0.05998      0
C        C     0.06521      0.08969      0.07415      0
C        C     0.02128      0.17626      0.06089      0
C        C     0.02184      0.17419      0.07505      0
C        C     0.01287      0.2244       0.08259      0
C        C     0.01309      0.22211      0.09675      0
C        C     0.02037      0.34059      0.08349      0
C        C     0.01985      0.33797      0.09766      0
C        C     0.03568      0.3994       0.10519      0
C        C     0.03483      0.39669      0.11935      0
C        C     0.09222      0.5291       0.10609      0
C        C     0.0907       0.52633      0.12026      0
C        C     0.12894      0.58966      0.12779      0
C        C     0.12714      0.58693      0.14196      0
C        C     0.22593      0.71319      0.1287       0
C        C     0.22363      0.71069      0.14286      0
C        C     0.27848      0.76633      0.1504       0
C        C     0.27601      0.764        0.16456      0
C        C     0.40121      0.86495      0.1513       0
C        C     0.39849      0.8631       0.16547      0
C        C     0.46162      0.90259      0.173        0
C        C     0.45886      0.90101      0.18717      0
C        C     0.59148      0.96134      0.17391      0
C        C     0.58875      0.96042      0.18807      0
C        C     0.65059      0.97778      0.19561      0
C        C     0.64795      0.97719      0.20977      0
C        C     0.76788      0.98775      0.19651      0
C        C     0.76555      0.9879       0.21067      0
C        C     0.81671      0.98049      0.21821      0
C        C     0.8146       0.98098      0.23237      0
C        C     0.90363      0.94016      0.21911      0
C        C     0.90206      0.94136      0.23328      0
C        C     0.93479      0.91031      0.24081      0
C        C     0.93352      0.91181      0.25498      0
C        C     0.97816      0.82581      0.24172      0
C        C     0.97758      0.82787      0.25588      0
C        C     0.98691      0.77789      0.26342      0
C        C     0.98668      0.78017      0.27758      0
C        C     0.78093      0.29433      0.00453      0
C        C     0.66552      0.1847       0.00543      0
C        C     0.60422      0.13876      0.01297      0
C        C     0.60693      0.14064      0.02713      0
C        C     0.47459      0.06479      0.01387      0
C        C     0.47737      0.06605      0.02803      0
C        C     0.41398      0.04052      0.03557      0
C        C     0.41671      0.04147      0.04973      0
C        C     0.29014      0.01301      0.03647      0
C        C     0.29265      0.01324      0.05064      0
C        C     0.23678      0.01197      0.05817      0
C        C     0.23913      0.01185      0.07234      0
C        C     0.13752      0.03511      0.05908      0
C        C     0.13939      0.03427      0.07324      0
C        C     0.09952      0.05746      0.08078      0
C        C     0.10112      0.05629      0.09494      0
C        C     0.03989      0.12773      0.08168      0
C        C     0.04083      0.12594      0.09585      0
C        C     0.02301      0.17008      0.10338      0
C        C     0.02362      0.16803      0.11755      0
C        C     0.01206      0.27683      0.10429      0
C        C     0.01193      0.27436      0.11845      0
C        C     0.01886      0.33274      0.12599      0
C        C     0.01838      0.33014      0.14015      0
C        C     0.05824      0.45978      0.12689      0
C        C     0.05706      0.45701      0.14105      0
C        C     0.08769      0.52078      0.14859      0
C        C     0.08621      0.51801      0.16275      0
C        C     0.17144      0.64883      0.14949      0
C        C     0.16939      0.64618      0.16366      0
C        C     0.21907      0.70567      0.17119      0
C        C     0.21681      0.70315      0.18536      0
C        C     0.33448      0.8153       0.1721       0
C        C     0.33187      0.81318      0.18626      0
C        C     0.39307      0.85936      0.1938       0
C        C     0.39037      0.85747      0.20796      0
C        C     0.52263      0.93395      0.1947       0
C        C     0.51986      0.93266      0.20887      0
C        C     0.58329      0.95853      0.2164       0
C        C     0.58055      0.95757      0.23057      0
C        C     0.70735      0.98676      0.21731      0
C        C     0.70483      0.98652      0.23147      0
C        C     0.76087      0.98815      0.23901      0
C        C     0.75852      0.98825      0.25317      0
C        C     0.86061      0.96573      0.23991      0
C        C     0.85873      0.96656      0.25407      0
C        C     0.89888      0.94371      0.26161      0
C        C     0.89727      0.94487      0.27577      0
C        C     0.95917      0.87406      0.26251      0
C        C     0.95821      0.87584      0.27668      0
C        C     0.97638      0.83197      0.28421      0
C        C     0.97576      0.834        0.29838      0
C        C     0.94525      0.54851      0.00272      0
C        C     0.87643      0.41853      0.00362      0
C        C     0.83264      0.35647      0.01116      0
C        C     0.83467      0.35912      0.02532      0
C        C     0.72646      0.23834      0.01206      0
C        C     0.72891      0.24069      0.02623      0
C        C     0.67073      0.18896      0.03376      0
C        C     0.67333      0.1911       0.04793      0
C        C     0.54391      0.10058      0.03467      0
C        C     0.54667      0.10219      0.04883      0
C        C     0.48291      0.06863      0.05637      0
C        C     0.48569      0.06994      0.07053      0
C        C     0.3547       0.02341      0.05727      0
C        C     0.35735      0.02403      0.07143      0
C        C     0.29769      0.01374      0.07897      0
C        C     0.30022      0.01402      0.09313      0
C        C     0.18753      0.01854      0.07987      0
C        C     0.18967      0.01808      0.09404      0
C        C     0.14316      0.03262      0.10157      0
C        C     0.14506      0.03182      0.11574      0
C        C     0.06777      0.0867       0.10248      0
C        C     0.06907      0.08523      0.11664      0
C        C     0.04276      0.1224       0.12418      0
C        C     0.04374      0.12064      0.13834      0
C        C     0.01357      0.21756      0.12508      0
C        C     0.01383      0.2153       0.13925      0
C        C     0.01172      0.26946      0.14678      0
C        C     0.01164      0.26701      0.16095      0
C        C     0.03316      0.39127      0.14769      0
C        C     0.03235      0.38856      0.16185      0
C        C     0.05475      0.45149      0.16939      0
C        C     0.05362      0.44873      0.18355      0
C        C     0.12357      0.58147      0.17029      0
C        C     0.12181      0.57873      0.18445      0
C        C     0.16533      0.64088      0.19199      0
C        C     0.16331      0.63822      0.20615      0
C        C     0.27109      0.75931      0.19289      0
C        C     0.26864      0.75695      0.20706      0
C        C     0.32667      0.8089       0.21459      0
C        C     0.32408      0.80674      0.22876      0
C        C     0.45333      0.89781      0.2155       0
C        C     0.45057      0.8962       0.22966      0
C        C     0.51431      0.93006      0.2372       0
C        C     0.51154      0.92873      0.25136      0
C        C     0.64265      0.97597      0.2381       0
C        C     0.63999      0.97534      0.25227      0
C        C     0.69978      0.98598      0.2598       0
C        C     0.69725      0.98569      0.27397      0
C        C     0.81033      0.98192      0.26071      0
C        C     0.80818      0.98237      0.27487      0
C        C     0.85494      0.96818      0.2824       0
C        C     0.85303      0.96897      0.29657      0
C        C     0.93093      0.91477      0.28331      0
C        C     0.92962      0.91623      0.29747      0
C        C     0.95626      0.87936      0.30501      0
C        C     0.95526      0.8811       0.31917      0
C        C     0.98617      0.7847       0.30591      0
C        C     0.98588      0.78695      0.32008      0
C        C     0.98252      0.67505      0.00181      0
C        C     0.96844      0.61414      0.00935      0
C        C     0.96922      0.61683      0.02351      0
C        C     0.91526      0.48476      0.01025      0
C        C     0.91671      0.48754      0.02442      0
C        C     0.87994      0.42401      0.03195      0
C        C     0.88168      0.42675      0.04612      0
C        C     0.78545      0.29938      0.03286      0
C        C     0.7877       0.30191      0.04702      0
C        C     0.7338       0.24541      0.05456      0
C        C     0.73623      0.24779      0.06872      0
C        C     0.61234      0.14442      0.05546      0
C        C     0.61504      0.14633      0.06963      0
C        C     0.55219      0.10543      0.07716      0
C        C     0.55495      0.10708      0.09133      0
C        C     0.42218      0.04341      0.07806      0
C        C     0.42493      0.0444       0.09223      0
C        C     0.36267      0.02531      0.09976      0
C        C     0.36534      0.02598      0.11393      0
C        C     0.24384      0.01166      0.10067      0
C        C     0.2462       0.01159      0.11483      0
C        C     0.19398      0.0172       0.12237      0
C        C     0.19615      0.01678      0.13653      0
C        C     0.10435      0.05399      0.12327      0
C        C     0.10598      0.05287      0.13744      0
C        C     0.07171      0.08232      0.14497      0
C        C     0.07305      0.08089      0.15914      0
C        C     0.02488      0.16398      0.14588      0
C        C     0.02553      0.16197      0.16004      0
C        C     0.01441      0.21081      0.16758      0
C        C     0.01472      0.20858      0.18174      0
C        C     0.01748      0.32495      0.16848      0
C        C     0.01706      0.32236      0.18265      0
C        C     0.03078      0.38317      0.19018      0
C        C     0.03001      0.38047      0.20435      0
C        C     0.08329      0.51246      0.19108      0
C        C     0.08184      0.50969      0.20525      0
C        C     0.11832      0.57325      0.21278      0
C        C     0.1166       0.5705       0.22695      0
C        C     0.2123       0.69809      0.21369      0
C        C     0.21006      0.69555      0.22785      0
C        C     0.26377      0.75221      0.23539      0
C        C     0.26134      0.74983      0.24955      0
C        C     0.38496      0.85367      0.23629      0
C        C     0.38227      0.85175      0.25046      0
C        C     0.44505      0.89292      0.25799      0
C        C     0.44229      0.89127      0.27216      0
C        C     0.57507      0.9556       0.2589       0
C        C     0.57233      0.95459      0.27306      0
C        C     0.63466      0.97402      0.2806       0
C        C     0.63199      0.97335      0.29476      0
C        C     0.7538       0.98841      0.2815       0
C        C     0.75142      0.98846      0.29567      0
C        C     0.80385      0.98322      0.3032       0
C        C     0.80168      0.98362      0.31737      0
C        C     0.89402      0.94713      0.3041       0
C        C     0.89237      0.94824      0.31827      0
C        C     0.92695      0.91911      0.3258       0
C        C     0.92559      0.92053      0.33997      0
C        C     0.97447      0.83803      0.32671      0
C        C     0.9738       0.84002      0.34087      0
C        C     0.98528      0.79142      0.34841      0
C        C     0.98495      0.79364      0.36257      0
C        C     0.98843      0.73542      0.00844      0
C        C     0.98848      0.73785      0.02261      0
C        C     0.98335      0.68023      0.03014      0
C        C     0.98375      0.6828       0.04431      0
C        C     0.9475       0.55403      0.03105      0
C        C     0.94861      0.55679      0.04521      0
C        C     0.91958      0.49309      0.05275      0
C        C     0.921        0.49586      0.06691      0
C        C     0.83869      0.36445      0.05365      0
C        C     0.84069      0.36711      0.06782      0
C        C     0.79216      0.307        0.07535      0
C        C     0.79438      0.30955      0.08952      0
C        C     0.6785       0.19542      0.07626      0
C        C     0.68108      0.1976       0.09042      0
C        C     0.62042      0.15018      0.09796      0
C        C     0.62311      0.15213      0.11212      0
C        C     0.49124      0.0726       0.09886      0
C        C     0.49401      0.07395      0.11303      0
C        C     0.43041      0.04644      0.12056      0
C        C     0.43316      0.04748      0.13473      0
C        C     0.3053       0.01462      0.12146      0
C        C     0.30785      0.01494      0.13563      0
C        C     0.25096      0.0115       0.14316      0
C        C     0.25335      0.01147      0.15733      0
C        C     0.14889      0.03026      0.14407      0
C        C     0.15083      0.02951      0.15823      0
C        C     0.10929      0.05066      0.16577      0
C        C     0.11096      0.04958      0.17993      0
C        C     0.04575      0.11717      0.16667      0
C        C     0.04678      0.11545      0.18084      0
C        C     0.02688      0.15799      0.18837      0
C        C     0.02758      0.15601      0.20254      0
C        C     0.01152      0.26215      0.18928      0
C        C     0.01149      0.25973      0.20344      0
C        C     0.01625      0.3172       0.21098      0
C        C     0.01587      0.31463      0.22514      0
C        C     0.05139      0.44321      0.21188      0
C        C     0.0503       0.44045      0.22605      0
C        C     0.079        0.50414      0.23358      0
C        C     0.0776       0.50136      0.24775      0
C        C     0.15931      0.63289      0.23448      0
C        C     0.15733      0.63021      0.24865      0
C        C     0.20562      0.69045      0.25618      0
C        C     0.20341      0.68789      0.27035      0
C        C     0.31892      0.8024       0.25709      0
C        C     0.31634      0.80022      0.27125      0
C        C     0.37689      0.84787      0.27879      0
C        C     0.3742       0.84592      0.29295      0
C        C     0.50599      0.92605      0.27969      0
C        C     0.50321      0.92468      0.29386      0
C        C     0.56684      0.95252      0.30139      0
C        C     0.56409      0.95147      0.31556      0
C        C     0.69215      0.98506      0.3023       0
C        C     0.6896       0.98472      0.31646      0
C        C     0.74665      0.98853      0.324        0
C        C     0.74425      0.98853      0.33816      0
C        C     0.84917      0.97049      0.3249       0
C        C     0.84722      0.97123      0.33907      0
C        C     0.88904      0.95042      0.3466       0
C        C     0.88735      0.95149      0.36077      0
C        C     0.95322      0.88455      0.3475       0
C        C     0.95217      0.88625      0.36167      0
C        C     0.97242      0.84399      0.3692       0
C        C     0.9717       0.84595      0.38337      0
C        C     0.98853      0.74268      0.05094      0
C        C     0.97074      0.62222      0.05184      0
C        C     0.97147      0.6249       0.06601      0
C        C     0.95078      0.5623       0.07354      0
C        C     0.95184      0.56505      0.08771      0
C        C     0.88512      0.43225      0.07445      0
C        C     0.88682      0.435        0.08861      0
C        C     0.84464      0.37246      0.09615      0
C        C     0.84661      0.37515      0.11031      0
C        C     0.74108      0.25256      0.09705      0
C        C     0.74349      0.25495      0.11122      0
C        C     0.68623      0.20198      0.11875      0
C        C     0.68879      0.20418      0.13292      0
C        C     0.56046      0.1104       0.11966      0
C        C     0.56322      0.11208      0.13382      0
C        C     0.49956      0.0767       0.14136      0
C        C     0.50234      0.07809      0.15552      0
C        C     0.37068      0.02735      0.14226      0
C        C     0.37336      0.02806      0.15643      0
C        C     0.31296      0.01563      0.16396      0
C        C     0.31553      0.016        0.17813      0
C        C     0.20051      0.016        0.16486      0
C        C     0.20271      0.01563      0.17903      0
C        C     0.15473      0.02805      0.18656      0
C        C     0.1567       0.02734      0.20073      0
C        C     0.07578      0.07807      0.18747      0
C        C     0.07716      0.07667      0.20163      0
C        C     0.04888      0.11205      0.20917      0
C        C     0.04996      0.11037      0.22333      0
C        C     0.0154       0.20414      0.21007      0
C        C     0.01575      0.20194      0.22424      0
C        C     0.01147      0.25491      0.23177      0
C        C     0.01148      0.25251      0.24594      0
C        C     0.02853      0.3751       0.23268      0
C        C     0.02781      0.37242      0.24684      0
C        C     0.04816      0.43495      0.25438      0
C        C     0.04711      0.4322       0.26854      0
C        C     0.11318      0.565        0.25528      0
C        C     0.11149      0.56225      0.26945      0
C        C     0.15339      0.62485      0.27698      0
C        C     0.15144      0.62217      0.29115      0
C        C     0.25651      0.74505      0.27788      0
C        C     0.25411      0.74264      0.29205      0
C        C     0.31121      0.79582      0.29958      0
C        C     0.30865      0.79361      0.31375      0
C        C     0.43678      0.88792      0.30049      0
C        C     0.43403      0.88622      0.31465      0
C        C     0.49766      0.92191      0.32219      0
C        C     0.49489      0.9205       0.33635      0
C        C     0.62664      0.97194      0.32309      0
C        C     0.62396      0.97122      0.33726      0
C        C     0.68447      0.984        0.34479      0
C        C     0.6819       0.98361      0.35896      0
C        C     0.79729      0.98437      0.3457       0
C        C     0.79508      0.98473      0.35986      0
C        C     0.8433       0.97266      0.3674       0
C        C     0.84132      0.97336      0.38156      0
C        C     0.92284      0.92333      0.3683       0
C        C     0.92144      0.92471      0.38247      0
C        C     0.95004      0.88963      0.39         0
C        C     0.94896      0.8913       0.40417      0
C        C     0.98425      0.79806      0.3909       0
C        C     0.98387      0.80026      0.40507      0
C        C     0.98852      0.74749      0.4126       0
C        C     0.98849      0.74987      0.42677      0
C        C     0.98449      0.68794      0.07264      0
C        C     0.98484      0.6905       0.08681      0
C        C     0.9729       0.63026      0.09434      0
C        C     0.97359      0.63293      0.1085       0
C        C     0.92379      0.50141      0.09524      0
C        C     0.92516      0.50419      0.10941      0
C        C     0.89018      0.4405       0.11694      0
C        C     0.89185      0.44326      0.13111      0
C        C     0.79879      0.31467      0.11785      0
C        C     0.80099      0.31724      0.13201      0
C        C     0.74828      0.25977      0.13955      0
C        C     0.75067      0.26219      0.15371      0
C        C     0.62847      0.15605      0.14045      0
C        C     0.63115      0.15802      0.15462      0
C        C     0.56872      0.11548      0.16215      0
C        C     0.57146      0.1172       0.17632      0
C        C     0.43867      0.0496       0.16306      0
C        C     0.44142      0.05068      0.17722      0
C        C     0.37873      0.02952      0.18476      0
C        C     0.38142      0.03028      0.19892      0
C        C     0.25816      0.01147      0.18566      0
C        C     0.26058      0.0115       0.19983      0
C        C     0.20713      0.01493      0.20736      0
C        C     0.20936      0.01461      0.22152      0
C        C     0.11434      0.04746      0.20826      0
C        C     0.11605      0.04642      0.22243      0
C        C     0.07997      0.07393      0.22996      0
C        C     0.08139      0.07258      0.24413      0
C        C     0.02903      0.15209      0.23087      0
C        C     0.02977      0.15015      0.24503      0
C        C     0.01652      0.19756      0.25257      0
C        C     0.01693      0.19538      0.26673      0
C        C     0.01516      0.3095       0.25347      0
C        C     0.01483      0.30695      0.26764      0
C        C     0.02641      0.36707      0.27517      0
C        C     0.02574      0.3644       0.28934      0
C        C     0.07484      0.49581      0.27608      0
C        C     0.07348      0.49304      0.29024      0
C        C     0.10815      0.55674      0.29778      0
C        C     0.1065       0.55398      0.31194      0
C        C     0.19901      0.68276      0.29868      0
C        C     0.19683      0.68018      0.31284      0
C        C     0.24933      0.73781      0.32038      0
C        C     0.24695      0.73538      0.33454      0
C        C     0.36885      0.84198      0.32128      0
C        C     0.36618      0.83999      0.33545      0
C        C     0.42854      0.8828       0.34298      0
C        C     0.42579      0.88107      0.35715      0
C        C     0.55858      0.94932      0.34389      0
C        C     0.55582      0.94822      0.35805      0
C        C     0.61858      0.96972      0.36559      0
C        C     0.61589      0.96895      0.37975      0
C        C     0.73942      0.9885       0.36649      0
C        C     0.737        0.98846      0.38066      0
C        C     0.79064      0.98539      0.38819      0
C        C     0.7884       0.98569      0.40236      0
C        C     0.88395      0.95358      0.3891       0
C        C     0.88222      0.9546       0.40326      0
C        C     0.91861      0.92742      0.4108       0
C        C     0.91717      0.92876      0.42496      0
C        C     0.97023      0.84985      0.4117       0
C        C     0.96947      0.85178      0.42586      0
C        C     0.98307      0.80462      0.4334       0
C        C     0.98265      0.80678      0.44756      0
C        C     0.98549      0.6956       0.11514      0
C        C     0.98579      0.69814      0.1293       0
C        C     0.95392      0.57055      0.11604      0
C        C     0.95494      0.57329      0.1302       0
C        C     0.92787      0.50974      0.13774      0
C        C     0.9292       0.51251      0.1519       0
C        C     0.8505       0.38052      0.13864      0
C        C     0.85242      0.38321      0.15281      0
C        C     0.80534      0.3224       0.16034      0
C        C     0.8075       0.32499      0.17451      0
C        C     0.6939       0.20862      0.16125      0
C        C     0.69644      0.21085      0.17541      0
C        C     0.63649      0.16201      0.18295      0
C        C     0.63915      0.16402      0.19711      0
C        C     0.50789      0.08092      0.18385      0
C        C     0.51066      0.08235      0.19802      0
C        C     0.44693      0.05289      0.20555      0
C        C     0.44969      0.05401      0.21972      0
C        C     0.32068      0.01679      0.20646      0
C        C     0.32326      0.0172       0.22062      0
C        C     0.26543      0.01159      0.22816      0
C        C     0.26787      0.01166      0.24232      0
C        C     0.16067      0.02596      0.22906      0
C        C     0.16268      0.0253       0.24322      0
C        C     0.11951      0.04439      0.25076      0
C        C     0.12126      0.04339      0.26492      0
C        C     0.05214      0.10705      0.25166      0
C        C     0.05326      0.10541      0.26583      0
C        C     0.03131      0.1463       0.27336      0
C        C     0.0321       0.14439      0.28753      0
C        C     0.01155      0.24774      0.27427      0
C        C     0.01161      0.24537      0.28843      0
C        C     0.01421      0.30186      0.29597      0
C        C     0.01392      0.29933      0.31013      0
C        C     0.04506      0.42671      0.29687      0
C        C     0.04405      0.42396      0.31104      0
C        C     0.0708       0.48749      0.31857      0
C        C     0.06948      0.48471      0.33274      0
C        C     0.14758      0.61679      0.31948      0
C        C     0.14566      0.61409      0.33364      0
C        C     0.1925       0.67501      0.34118      0
C        C     0.19035      0.67242      0.35534      0
C        C     0.30356      0.78915      0.34208      0
C        C     0.30102      0.78691      0.35624      0
C        C     0.36085      0.83598      0.36378      0
C        C     0.35819      0.83396      0.37794      0
C        C     0.48934      0.91765      0.36468      0
C        C     0.48656      0.9162       0.37885      0
C        C     0.55031      0.94599      0.38638      0
C        C     0.54754      0.94485      0.40055      0
C        C     0.67674      0.9828       0.38729      0
C        C     0.67415      0.98236      0.40145      0
C        C     0.73213      0.98834      0.40899      0
C        C     0.72969      0.98825      0.42315      0
C        C     0.83732      0.9747       0.40989      0
C        C     0.83531      0.97535      0.42406      0
C        C     0.87874      0.95661      0.43159      0
C        C     0.87698      0.95759      0.44576      0
C        C     0.94674      0.89459      0.4325       0
C        C     0.94561      0.89622      0.44666      0
C        C     0.9679       0.85561      0.4542       0
C        C     0.9671       0.85751      0.46836      0
C        C     0.98839      0.75463      0.4551       0
C        C     0.98831      0.75699      0.46926      0
C        C     0.97492      0.63826      0.13684      0
C        C     0.97556      0.64092      0.151        0
C        C     0.95694      0.57878      0.15854      0
C        C     0.95791      0.58151      0.1727       0
C        C     0.89514      0.44877      0.15944      0
C        C     0.89676      0.45154      0.1736       0
C        C     0.85624      0.38861      0.18114      0
C        C     0.85814      0.39131      0.1953       0
C        C     0.75542      0.26705      0.18204      0
C        C     0.75778      0.2695       0.19621      0
C        C     0.70151      0.21534      0.20374      0
C        C     0.70404      0.2176       0.21791      0
C        C     0.57695      0.12067      0.20465      0
C        C     0.57969      0.12243      0.21881      0
C        C     0.51621      0.08525      0.22635      0
C        C     0.51898      0.08673      0.24051      0
C        C     0.38681      0.03183      0.22725      0
C        C     0.38951      0.03263      0.24142      0
C        C     0.32845      0.01808      0.24895      0
C        C     0.33105      0.01855      0.26312      0
C        C     0.21384      0.01401      0.24986      0
C        C     0.21609      0.01374      0.26402      0
C        C     0.16671      0.02402      0.27156      0
C        C     0.16875      0.0234       0.28572      0
C        C     0.08428      0.06992      0.27246      0
C        C     0.08574      0.06861      0.28662      0
C        C     0.05554      0.10216      0.29416      0
C        C     0.0567       0.10056      0.30832      0
C        C     0.01778      0.19106      0.29506      0
C        C     0.01824      0.18892      0.30923      0
C        C     0.01178      0.24065      0.31676      0
C        C     0.01189      0.2383       0.33093      0
C        C     0.02444      0.35908      0.31767      0
C        C     0.02381      0.35642      0.33183      0
C        C     0.04209      0.41849      0.33937      0
C        C     0.04113      0.41575      0.35353      0
C        C     0.10324      0.54846      0.34027      0
C        C     0.10162      0.5457       0.35444      0
C        C     0.14186      0.60869      0.36197      0
C        C     0.13998      0.60598      0.37614      0
C        C     0.24222      0.7305       0.36288      0
C        C     0.23987      0.72805      0.37704      0
C        C     0.29596      0.7824       0.38457      0
C        C     0.29344      0.78013      0.39874      0
C        C     0.42031      0.87757      0.38548      0
C        C     0.41757      0.8758       0.39964      0
C        C     0.48102      0.91327      0.40718      0
C        C     0.47824      0.91178      0.42134      0
C        C     0.61049      0.96737      0.40808      0
C        C     0.60778      0.96655      0.42225      0
C        C     0.66895      0.98145      0.42978      0
C        C     0.66634      0.98097      0.44395      0
C        C     0.78391      0.98626      0.43069      0
C        C     0.78164      0.98652      0.44485      0
C        C     0.83125      0.9766       0.45239      0
C        C     0.82921      0.9772       0.46655      0
C        C     0.91426      0.93139      0.45329      0
C        C     0.91278      0.93269      0.46746      0
C        C     0.9433       0.89944      0.47499      0
C        C     0.94213      0.90104      0.48916      0
C        C     0.98176      0.81108      0.47589      0
C        C     0.98129      0.81322      0.49006      0
C        C     0.98811      0.7617       0.49759      0
C        C     0.98799      0.76404      0.51176      0
C        C     0.98635      0.7032       0.15763      0
C        C     0.9866       0.70572      0.1718       0
C        C     0.9768       0.64623      0.17933      0
C        C     0.9774       0.64888      0.1935       0
C        C     0.93182      0.51806      0.18023      0
C        C     0.93312      0.52083      0.1944       0
C        C     0.89998      0.45706      0.20193      0
C        C     0.90156      0.45983      0.2161       0
C        C     0.81179      0.33018      0.20284      0
C        C     0.81392      0.33279      0.217        0
C        C     0.76248      0.27441      0.22454      0
C        C     0.76481      0.27687      0.2387       0
C        C     0.64446      0.16807      0.22544      0
C        C     0.64711      0.17011      0.23961      0
C        C     0.58516      0.12597      0.24714      0
C        C     0.58789      0.12777      0.26131      0
C        C     0.45522      0.05631      0.24805      0
C        C     0.45798      0.05748      0.26221      0
C        C     0.39493      0.03428      0.26975      0
C        C     0.39764      0.03513      0.28391      0
C        C     0.27277      0.01185      0.27065      0
C        C     0.27523      0.01197      0.28482      0
C        C     0.22063      0.01324      0.29235      0
C        C     0.22291      0.01301      0.30652      0
C        C     0.12479      0.04145      0.29325      0
C        C     0.12657      0.0405       0.30742      0
C        C     0.08871      0.06603      0.31495      0
C        C     0.09022      0.06476      0.32912      0
C        C     0.03373      0.14061      0.31586      0
C        C     0.03456      0.13873      0.33002      0
C        C     0.01919      0.18466      0.33756      0
C        C     0.01969      0.18255      0.35172      0
C        C     0.0134       0.29428      0.33846      0
C        C     0.01316      0.29177      0.35263      0
C        C     0.0226       0.35112      0.36016      0
C        C     0.02202      0.34848      0.37433      0
C        C     0.06688      0.47917      0.36107      0
C        C     0.06561      0.47639      0.37523      0
C        C     0.09844      0.54017      0.38277      0
C        C     0.09686      0.53741      0.39693      0
C        C     0.18608      0.66721      0.38367      0
C        C     0.18395      0.6646       0.39784      0
C        C     0.23519      0.72313      0.40537      0
C        C     0.23286      0.72065      0.41954      0
C        C     0.35289      0.82989      0.40627      0
C        C     0.35024      0.82784      0.42044      0
C        C     0.41211      0.87223      0.42797      0
C        C     0.40938      0.87043      0.44214      0
C        C     0.54202      0.94252      0.42888      0
C        C     0.53925      0.94134      0.44304      0
C        C     0.60236      0.96487      0.45058      0
C        C     0.59965      0.96401      0.46474      0
C        C     0.72477      0.98803      0.45148      0
C        C     0.7223       0.98789      0.46565      0
C        C     0.77709      0.98699      0.47318      0
C        C     0.7748       0.9872       0.48735      0
C        C     0.87343      0.9595       0.47409      0
C        C     0.87163      0.96044      0.48825      0
C        C     0.90978      0.93524      0.49579      0
C        C     0.90826      0.93649      0.50995      0
C        C     0.96544      0.86127      0.49669      0
C        C     0.96459      0.86313      0.51086      0
C        C     0.98031      0.81745      0.51839      0
C        C     0.9798       0.81956      0.53256      0
C        C     0.98706      0.71074      0.20013      0
C        C     0.98727      0.71324      0.21429      0
C        C     0.95981      0.58698      0.20103      0
C        C     0.96074      0.58971      0.2152       0
C        C     0.93565      0.52638      0.22273      0
C        C     0.9369       0.52915      0.2369       0
C        C     0.86189      0.39673      0.22363      0
C        C     0.86375      0.39945      0.2378       0
C        C     0.81816      0.33802      0.24533      0
C        C     0.82026      0.34064      0.2595       0
C        C     0.70907      0.22215      0.24624      0
C        C     0.71157      0.22444      0.2604       0
C        C     0.6524       0.17423      0.26794      0
C        C     0.65503      0.1763       0.2821       0
C        C     0.52453      0.08972      0.26884      0
C        C     0.5273       0.09123      0.28301      0
C        C     0.46352      0.05986      0.29054      0
C        C     0.46628      0.06107      0.30471      0
C        C     0.33627      0.01952      0.29145      0
C        C     0.33889      0.02003      0.30561      0
C        C     0.28017      0.01225      0.31315      0
C        C     0.28265      0.01242      0.32731      0
C        C     0.17285      0.02221      0.31405      0
C        C     0.17492      0.02164      0.32822      0
C        C     0.13017      0.03864      0.33575      0
C        C     0.13199      0.03774      0.34992      0
C        C     0.05906      0.09739      0.33665      0
C        C     0.06026      0.09582      0.35082      0
C        C     0.03628      0.13502      0.35835      0
C        C     0.03716      0.13318      0.37252      0
C        C     0.01215      0.23363      0.35926      0
C        C     0.01231      0.23131      0.37342      0
C        C     0.01273      0.28676      0.38096      0
C        C     0.01254      0.28427      0.39512      0
C        C     0.03926      0.41029      0.38186      0
C        C     0.03834      0.40756      0.39603      0
C        C     0.0631       0.47085      0.40356      0
C        C     0.06186      0.46808      0.41773      0
C        C     0.13625      0.60055      0.40447      0
C        C     0.1344       0.59784      0.41863      0
C        C     0.17974      0.65936      0.42617      0
C        C     0.17765      0.65674      0.44033      0
C        C     0.28843      0.77556      0.42707      0
C        C     0.28593      0.77327      0.44124      0
C        C     0.34497      0.8237       0.44877      0
C        C     0.34234      0.82162      0.46294      0
C        C     0.4727       0.90877      0.44967      0
C        C     0.46993      0.90725      0.46384      0
C        C     0.53372      0.93893      0.47137      0
C        C     0.53095      0.93771      0.48554      0
C        C     0.66111      0.97997      0.47228      0
C        C     0.65849      0.97945      0.48644      0
C        C     0.71735      0.98758      0.49398      0
C        C     0.71486      0.9874       0.50814      0
C        C     0.82508      0.97836      0.49488      0
C        C     0.82301      0.97891      0.50905      0
C        C     0.86801      0.96226      0.51658      0
C        C     0.86618      0.96315      0.53075      0
C        C     0.93974      0.90418      0.51749      0
C        C     0.93853      0.90573      0.53165      0
C        C     0.96284      0.86682      0.53919      0
C        C     0.96195      0.86865      0.55335      0
C        C     0.98769      0.76869      0.54009      0
C        C     0.98752      0.771        0.55426      0
C        C     0.97855      0.65415      0.22183      0
C        C     0.9791       0.65678      0.23599      0
C        C     0.96256      0.59516      0.24353      0
C        C     0.96345      0.59788      0.25769      0
C        C     0.9047       0.46536      0.24443      0
C        C     0.90625      0.46813      0.2586       0
C        C     0.86743      0.40489      0.26613      0
C        C     0.86925      0.40761      0.2803       0
C        C     0.76946      0.28182      0.26703      0
C        C     0.77177      0.28431      0.2812       0
C        C     0.71656      0.22904      0.28873      0
C        C     0.71905      0.23135      0.3029       0
C        C     0.59335      0.13138      0.28964      0
C        C     0.59607      0.13321      0.3038       0
C        C     0.53284      0.09429      0.31134      0
C        C     0.53561      0.09585      0.3255       0
C        C     0.40307      0.03686      0.31224      0
C        C     0.40579      0.03775      0.32641      0
C        C     0.34414      0.0211       0.33394      0
C        C     0.34677      0.02165      0.34811      0
C        C     0.2275       0.0126       0.33485      0
C        C     0.22981      0.01242      0.34901      0
C        C     0.17908      0.02055      0.35655      0
C        C     0.18118      0.02002      0.37071      0
C        C     0.09327      0.06227      0.35745      0
C        C     0.09481      0.06105      0.37162      0
C        C     0.0627       0.09273      0.37915      0
C        C     0.06395      0.0912       0.39332      0
C        C     0.02073      0.17835      0.38005      0
C        C     0.02128      0.17626      0.39422      0
C        C     0.01267      0.22669      0.40175      0
C        C     0.01287      0.2244       0.41592      0
C        C     0.0209       0.34322      0.40266      0
C        C     0.02037      0.34059      0.41682      0
C        C     0.03655      0.40212      0.42436      0
C        C     0.03568      0.3994       0.43852      0
C        C     0.09375      0.53187      0.42526      0
C        C     0.09222      0.5291       0.43943      0
C        C     0.13075      0.59239      0.44696      0
C        C     0.12894      0.58966      0.46113      0
C        C     0.22823      0.71569      0.44787      0
C        C     0.22593      0.71319      0.46203      0
C        C     0.28095      0.76865      0.46957      0
C        C     0.27848      0.76633      0.48373      0
C        C     0.40393      0.86679      0.47047      0
C        C     0.40121      0.86495      0.48464      0
C        C     0.46439      0.90415      0.49217      0
C        C     0.46162      0.90259      0.50633      0
C        C     0.59421      0.96225      0.49307      0
C        C     0.59148      0.96134      0.50724      0
C        C     0.65323      0.97835      0.51477      0
C        C     0.65059      0.97778      0.52894      0
C        C     0.77019      0.98758      0.51568      0
C        C     0.76788      0.98775      0.52984      0
C        C     0.81882      0.97998      0.53738      0
C        C     0.81671      0.98049      0.55154      0
C        C     0.90519      0.93895      0.53828      0
C        C     0.90363      0.94016      0.55245      0
C        C     0.93605      0.9088       0.55998      0
C        C     0.93479      0.91031      0.57415      0
C        C     0.97872      0.82374      0.56089      0
C        C     0.97816      0.82581      0.57505      0
C        C     0.98713      0.7756       0.58259      0
C        C     0.98691      0.77789      0.59675      0
C        C     0.98764      0.71822      0.24262      0
C        C     0.9878       0.7207       0.25679      0
C        C     0.98015      0.66203      0.26432      0
C        C     0.98065      0.66465      0.27849      0
C        C     0.93936      0.53469      0.26523      0
C        C     0.94057      0.53745      0.27939      0
C        C     0.9093       0.47367      0.28693      0
C        C     0.91081      0.47644      0.30109      0
C        C     0.82443      0.34589      0.28783      0
C        C     0.8265       0.34853      0.302        0
C        C     0.77637      0.28931      0.30953      0
C        C     0.77865      0.29181      0.32369      0
C        C     0.66028      0.18048      0.31043      0
C        C     0.6629       0.18258      0.3246       0
C        C     0.60151      0.1369       0.33213      0
C        C     0.60422      0.13876      0.3463       0
C        C     0.47182      0.06353      0.33304      0
C        C     0.47459      0.06479      0.3472       0
C        C     0.41125      0.03958      0.35474      0
C        C     0.41398      0.04052      0.3689       0
C        C     0.28764      0.0128       0.35564      0
C        C     0.29014      0.01301      0.36981      0
C        C     0.23445      0.0121       0.37734      0
C        C     0.23678      0.01197      0.39151      0
C        C     0.13567      0.03597      0.37825      0
C        C     0.13752      0.03511      0.39241      0
C        C     0.09794      0.05864      0.39995      0
C        C     0.09952      0.05746      0.41411      0
C        C     0.03896      0.12954      0.40085      0
C        C     0.03989      0.12773      0.41501      0
C        C     0.02242      0.17213      0.42255      0
C        C     0.02301      0.17008      0.43671      0
C        C     0.0122       0.2793       0.42345      0
C        C     0.01206      0.27683      0.43762      0
C        C     0.01935      0.33535      0.44515      0
C        C     0.01886      0.33274      0.45932      0
C        C     0.05943      0.46255      0.44606      0
C        C     0.05824      0.45978      0.46022      0
C        C     0.08919      0.52356      0.46776      0
C        C     0.08769      0.52078      0.48192      0
C        C     0.1735       0.65147      0.46866      0
C        C     0.17144      0.64883      0.48283      0
C        C     0.22135      0.70819      0.49036      0
C        C     0.21907      0.70567      0.50453      0
C        C     0.3371       0.81742      0.49127      0
C        C     0.33448      0.8153       0.50543      0
C        C     0.39578      0.86124      0.51297      0
C        C     0.39307      0.85936      0.52713      0
C        C     0.52541      0.93521      0.51387      0
C        C     0.52263      0.93395      0.52803      0
C        C     0.58602      0.95948      0.53557      0
C        C     0.58329      0.95853      0.54973      0
C        C     0.70986      0.98699      0.53647      0
C        C     0.70735      0.98676      0.55064      0
C        C     0.76322      0.98803      0.55817      0
C        C     0.76087      0.98815      0.57234      0
C        C     0.86248      0.96489      0.55908      0
C        C     0.86061      0.96573      0.57324      0
C        C     0.90048      0.94254      0.58078      0
C        C     0.89888      0.94371      0.59494      0
C        C     0.96011      0.87227      0.58168      0
C        C     0.95917      0.87406      0.59585      0
C        C     0.97699      0.82992      0.60338      0
C        C     0.97638      0.83197      0.61755      0
C        C     0.98807      0.72564      0.28512      0
C        C     0.98819      0.72809      0.29928      0
C        C     0.96517      0.60331      0.28602      0
C        C     0.96601      0.60603      0.30019      0
C        C     0.94294      0.54299      0.30772      0
C        C     0.9441       0.54575      0.32189      0
C        C     0.87286      0.41307      0.30863      0
C        C     0.87465      0.4158       0.32279      0
C        C     0.83061      0.35382      0.33033      0
C        C     0.83264      0.35647      0.34449      0
C        C     0.72399      0.236        0.33123      0
C        C     0.72646      0.23834      0.34539      0
C        C     0.66813      0.18682      0.35293      0
C        C     0.67073      0.18896      0.36709      0
C        C     0.54114      0.09899      0.35383      0
C        C     0.54391      0.10058      0.368        0
C        C     0.48014      0.06734      0.37553      0
C        C     0.48291      0.06863      0.3897       0
C        C     0.35205      0.02281      0.37644      0
C        C     0.3547       0.02341      0.3906       0
C        C     0.29517      0.01348      0.39814      0
C        C     0.29769      0.01374      0.4123       0
C        C     0.1854       0.01902      0.39904      0
C        C     0.18753      0.01854      0.41321      0
C        C     0.14127      0.03344      0.42074      0
C        C     0.14316      0.03262      0.43491      0
C        C     0.06648      0.08819      0.42165      0
C        C     0.06777      0.0867       0.43581      0
C        C     0.04179      0.12416      0.44335      0
C        C     0.04276      0.1224       0.45751      0
C        C     0.01332      0.21983      0.44425      0
C        C     0.01357      0.21756      0.45841      0
C        C     0.01181      0.27191      0.46595      0
C        C     0.01172      0.26946      0.48011      0
C        C     0.03399      0.39397      0.46685      0
C        C     0.03316      0.39127      0.48102      0
C        C     0.0559       0.45425      0.48855      0
C        C     0.05475      0.45149      0.50272      0
C        C     0.12535      0.5842       0.48946      0
C        C     0.12357      0.58147      0.50362      0
C        C     0.16736      0.64353      0.51116      0
C        C     0.16533      0.64088      0.52532      0
C        C     0.27354      0.76166      0.51206      0
C        C     0.27109      0.75931      0.52623      0
C        C     0.32927      0.81104      0.53376      0
C        C     0.32667      0.8089       0.54793      0
C        C     0.45609      0.89942      0.53467      0
C        C     0.45333      0.89781      0.54883      0
C        C     0.51709      0.93137      0.55637      0
C        C     0.51431      0.93006      0.57053      0
C        C     0.6453       0.97659      0.55727      0
C        C     0.64265      0.97597      0.57143      0
C        C     0.70231      0.98626      0.57897      0
C        C     0.69978      0.98598      0.59313      0
C        C     0.81247      0.98146      0.57987      0
C        C     0.81033      0.98192      0.59404      0
C        C     0.85684      0.96738      0.60157      0
C        C     0.85494      0.96818      0.61574      0
C        C     0.93223      0.9133       0.60248      0
C        C     0.93093      0.91477      0.61664      0
C        C     0.95724      0.8776       0.62418      0
C        C     0.95626      0.87936      0.63834      0
C        C     0.98643      0.78244      0.62508      0
C        C     0.98617      0.7847       0.63925      0
C        C     0.98162      0.66986      0.30682      0
C        C     0.98207      0.67246      0.32098      0
C        C     0.96765      0.61144      0.32852      0
C        C     0.96844      0.61414      0.34268      0
C        C     0.91379      0.48199      0.32942      0
C        C     0.91526      0.48476      0.34359      0
C        C     0.87819      0.42127      0.35112      0
C        C     0.87994      0.42401      0.36529      0
C        C     0.78319      0.29685      0.35203      0
C        C     0.78545      0.29938      0.36619      0
C        C     0.73136      0.24305      0.37372      0
C        C     0.7338       0.24541      0.38789      0
C        C     0.60963      0.14253      0.37463      0
C        C     0.61234      0.14442      0.38879      0
C        C     0.54943      0.1038       0.39633      0
C        C     0.55219      0.10543      0.41049      0
C        C     0.41945      0.04243      0.39723      0
C        C     0.42218      0.04341      0.4114       0
C        C     0.36001      0.02466      0.41893      0
C        C     0.36267      0.02531      0.4331       0
C        C     0.24148      0.01175      0.41984      0
C        C     0.24384      0.01166      0.434        0
C        C     0.19182      0.01763      0.44154      0
C        C     0.19398      0.0172       0.4557       0
C        C     0.10273      0.05513      0.44244      0
C        C     0.10435      0.05399      0.45661      0
C        C     0.07038      0.08377      0.46414      0
C        C     0.07171      0.08232      0.47831      0
C        C     0.02424      0.166        0.46505      0
C        C     0.02488      0.16398      0.47921      0
C        C     0.01412      0.21305      0.48674      0
C        C     0.01441      0.21081      0.50091      0
C        C     0.01793      0.32754      0.48765      0
C        C     0.01748      0.32495      0.50181      0
C        C     0.03156      0.38586      0.50935      0
C        C     0.03078      0.38317      0.52351      0
C        C     0.08474      0.51524      0.51025      0
C        C     0.08329      0.51246      0.52442      0
C        C     0.12006      0.57599      0.53195      0
C        C     0.11832      0.57325      0.54612      0
C        C     0.21455      0.70062      0.53286      0
C        C     0.2123       0.69809      0.54702      0
C        C     0.2662       0.75459      0.55456      0
C        C     0.26377      0.75221      0.56872      0
C        C     0.38766      0.85558      0.55546      0
C        C     0.38496      0.85367      0.56963      0
C        C     0.44781      0.89457      0.57716      0
C        C     0.44505      0.89292      0.59133      0
C        C     0.57782      0.95659      0.57806      0
C        C     0.57507      0.9556       0.59223      0
C        C     0.63733      0.97469      0.59976      0
C        C     0.63466      0.97402      0.61393      0
C        C     0.75616      0.98834      0.60067      0
C        C     0.7538       0.98841      0.61483      0
C        C     0.80602      0.9828       0.62237      0
C        C     0.80385      0.98322      0.63653      0
C        C     0.89565      0.94601      0.62327      0
C        C     0.89402      0.94713      0.63744      0
C        C     0.92829      0.91768      0.64497      0
C        C     0.92695      0.91911      0.65914      0
C        C     0.97512      0.83602      0.64588      0
C        C     0.97447      0.83803      0.66004      0
C        C     0.98559      0.78919      0.66758      0
C        C     0.98528      0.79142      0.68174      0
C        C     0.98836      0.73299      0.32761      0
C        C     0.98843      0.73542      0.34178      0
C        C     0.98294      0.67764      0.34931      0
C        C     0.98335      0.68023      0.36348      0
C        C     0.94638      0.55127      0.35022      0
C        C     0.9475       0.55403      0.36438      0
C        C     0.91816      0.49031      0.37192      0
C        C     0.91958      0.49309      0.38608      0
C        C     0.83669      0.36178      0.37282      0
C        C     0.83869      0.36445      0.38699      0
C        C     0.78994      0.30445      0.39452      0
C        C     0.79216      0.307        0.40869      0
C        C     0.67592      0.19326      0.39542      0
C        C     0.6785       0.19542      0.40959      0
C        C     0.61773      0.14825      0.41712      0
C        C     0.62042      0.15018      0.43129      0
C        C     0.48846      0.07127      0.41803      0
C        C     0.49124      0.0726       0.43219      0
C        C     0.42767      0.04541      0.43973      0
C        C     0.43041      0.04644      0.45389      0
C        C     0.30275      0.01431      0.44063      0
C        C     0.3053       0.01462      0.4548       0
C        C     0.24858      0.01154      0.46233      0
C        C     0.25096      0.0115       0.4765       0
C        C     0.14697      0.03103      0.46324      0
C        C     0.14889      0.03026      0.4774       0
C        C     0.10763      0.05176      0.48494      0
C        C     0.10929      0.05066      0.4991       0
C        C     0.04474      0.1189       0.48584      0
C        C     0.04575      0.11717      0.50001      0
C        C     0.0262       0.15998      0.50754      0
C        C     0.02688      0.15799      0.52171      0
C        C     0.01157      0.26458      0.50844      0
C        C     0.01152      0.26215      0.52261      0
C        C     0.01665      0.31977      0.53014      0
C        C     0.01625      0.3172       0.54431      0
C        C     0.0525       0.44597      0.53105      0
C        C     0.05139      0.44321      0.54521      0
C        C     0.08042      0.50691      0.55275      0
C        C     0.079        0.50414      0.56691      0
C        C     0.16131      0.63555      0.55365      0
C        C     0.15931      0.63289      0.56782      0
C        C     0.20784      0.693        0.57535      0
C        C     0.20562      0.69045      0.58952      0
C        C     0.3215       0.80458      0.57626      0
C        C     0.31892      0.8024       0.59042      0
C        C     0.37958      0.84982      0.59796      0
C        C     0.37689      0.84787      0.61212      0
C        C     0.50876      0.9274       0.59886      0
C        C     0.50599      0.92605      0.61303      0
C        C     0.56959      0.95356      0.62056      0
C        C     0.56684      0.95252      0.63473      0
C        C     0.6947       0.98538      0.62146      0
C        C     0.69215      0.98506      0.63563      0
C        C     0.74904      0.9885       0.64316      0
C        C     0.74665      0.98853      0.65733      0
C        C     0.85111      0.96974      0.64407      0
C        C     0.84917      0.97049      0.65823      0
C        C     0.89071      0.94934      0.66577      0
C        C     0.88904      0.95042      0.67993      0
C        C     0.95425      0.88283      0.66667      0
C        C     0.95322      0.88455      0.68084      0
C        C     0.97312      0.84201      0.68837      0
C        C     0.97242      0.84399      0.70254      0
C        C     0.98851      0.74027      0.37011      0
C        C     0.98853      0.74268      0.38427      0
C        C     0.96999      0.61953      0.37101      0
C        C     0.97074      0.62222      0.38518      0
C        C     0.9497       0.55955      0.39271      0
C        C     0.95078      0.5623       0.40688      0
C        C     0.8834       0.4295       0.39362      0
C        C     0.88512      0.43225      0.40778      0
C        C     0.84267      0.36979      0.41532      0
C        C     0.84464      0.37246      0.42948      0
C        C     0.73866      0.25017      0.41622      0
C        C     0.74108      0.25256      0.43039      0
C        C     0.68366      0.19978      0.43792      0
C        C     0.68623      0.20198      0.45209      0
C        C     0.55771      0.10873      0.43882      0
C        C     0.56046      0.1104       0.45299      0
C        C     0.49679      0.07532      0.46052      0
C        C     0.49956      0.0767       0.47469      0
C        C     0.36801      0.02665      0.46143      0
C        C     0.37068      0.02735      0.47559      0
C        C     0.3104       0.01528      0.48313      0
C        C     0.31296      0.01563      0.49729      0
C        C     0.19832      0.01638      0.48403      0
C        C     0.20051      0.016        0.4982       0
C        C     0.15278      0.02877      0.50573      0
C        C     0.15473      0.02805      0.5199       0
C        C     0.07441      0.07947      0.50664      0
C        C     0.07578      0.07807      0.5208       0
C        C     0.04783      0.11375      0.52834      0
C        C     0.04888      0.11205      0.5425       0
C        C     0.01505      0.20636      0.52924      0
C        C     0.0154       0.20414      0.54341      0
C        C     0.01147      0.25732      0.55094      0
C        C     0.01147      0.25491      0.56511      0
C        C     0.02926      0.37778      0.55184      0
C        C     0.02853      0.3751       0.56601      0
C        C     0.04922      0.4377       0.57354      0
C        C     0.04816      0.43495      0.58771      0
C        C     0.11488      0.56775      0.57445      0
C        C     0.11318      0.565        0.58861      0
C        C     0.15536      0.62754      0.59615      0
C        C     0.15339      0.62485      0.61031      0
C        C     0.25892      0.74744      0.59705      0
C        C     0.25651      0.74505      0.61122      0
C        C     0.31377      0.79802      0.61875      0
C        C     0.31121      0.79582      0.63292      0
C        C     0.43954      0.8896       0.61966      0
C        C     0.43678      0.88792      0.63382      0
C        C     0.50044      0.9233       0.64136      0
C        C     0.49766      0.92191      0.65552      0
C        C     0.62932      0.97265      0.64226      0
C        C     0.62664      0.97194      0.65643      0
C        C     0.68704      0.98437      0.66396      0
C        C     0.68447      0.984        0.67813      0
C        C     0.79949      0.984        0.66486      0
C        C     0.79729      0.98437      0.67903      0
C        C     0.84527      0.97195      0.68656      0
C        C     0.8433       0.97266      0.70073      0
C        C     0.92422      0.92193      0.68747      0
C        C     0.92284      0.92333      0.70163      0
C        C     0.95112      0.88795      0.70917      0
C        C     0.95004      0.88963      0.72333      0
C        C     0.9846       0.79586      0.71007      0
C        C     0.98425      0.79806      0.72424      0
C        C     0.98853      0.74509      0.73177      0
C        C     0.98852      0.74749      0.74594      0
C        C     0.98413      0.68537      0.39181      0
C        C     0.98449      0.68794      0.40597      0
C        C     0.97219      0.62758      0.41351      0
C        C     0.9729       0.63026      0.42767      0
C        C     0.9224       0.49864      0.41441      0
C        C     0.92379      0.50141      0.42858      0
C        C     0.88851      0.43775      0.43611      0
C        C     0.89018      0.4405       0.45028      0
C        C     0.79659      0.31211      0.43702      0
C        C     0.79879      0.31467      0.45118      0
C        C     0.74589      0.25736      0.45872      0
C        C     0.74828      0.25977      0.47288      0
C        C     0.6258       0.15408      0.45962      0
C        C     0.62847      0.15605      0.47379      0
C        C     0.56597      0.11378      0.48132      0
C        C     0.56872      0.11548      0.49549      0
C        C     0.43591      0.04853      0.48222      0
C        C     0.43867      0.0496       0.49639      0
C        C     0.37604      0.02878      0.50392      0
C        C     0.37873      0.02952      0.51809      0
C        C     0.25575      0.01147      0.50483      0
C        C     0.25816      0.01147      0.51899      0
C        C     0.20492      0.01527      0.52653      0
C        C     0.20713      0.01493      0.54069      0
C        C     0.11265      0.04851      0.52743      0
C        C     0.11434      0.04746      0.5416       0
C        C     0.07856      0.07529      0.54913      0
C        C     0.07997      0.07393      0.5633       0
C        C     0.0283       0.15405      0.55004      0
C        C     0.02903      0.15209      0.5642       0
C        C     0.01613      0.19974      0.57174      0
C        C     0.01652      0.19756      0.5859       0
C        C     0.01551      0.31206      0.57264      0
C        C     0.01516      0.3095       0.58681      0
C        C     0.0271       0.36974      0.59434      0
C        C     0.02641      0.36707      0.6085       0
C        C     0.07621      0.49859      0.59524      0
C        C     0.07484      0.49581      0.60941      0
C        C     0.10982      0.5595       0.61694      0
C        C     0.10815      0.55674      0.63111      0
C        C     0.20121      0.68533      0.61785      0
C        C     0.19901      0.68276      0.63201      0
C        C     0.25172      0.74023      0.63955      0
C        C     0.24933      0.73781      0.65371      0
C        C     0.37153      0.84395      0.64045      0
C        C     0.36885      0.84198      0.65462      0
C        C     0.43128      0.88452      0.66215      0
C        C     0.42854      0.8828       0.67632      0
C        C     0.56133      0.9504       0.66306      0
C        C     0.55858      0.94932      0.67722      0
C        C     0.62127      0.97048      0.68476      0
C        C     0.61858      0.96972      0.69892      0
C        C     0.74184      0.98853      0.68566      0
C        C     0.73942      0.9885       0.69983      0
C        C     0.79287      0.98507      0.70736      0
C        C     0.79064      0.98539      0.72152      0
C        C     0.88566      0.95254      0.70826      0
C        C     0.88395      0.95358      0.72243      0
C        C     0.92003      0.92607      0.72996      0
C        C     0.91861      0.92742      0.74413      0
C        C     0.97097      0.84791      0.73087      0
C        C     0.97023      0.84985      0.74503      0
C        C     0.98348      0.80244      0.75257      0
C        C     0.98307      0.80462      0.76673      0
C        C     0.98517      0.69305      0.4343       0
C        C     0.98549      0.6956       0.44847      0
C        C     0.95289      0.5678       0.43521      0
C        C     0.95392      0.57055      0.44937      0
C        C     0.92652      0.50696      0.45691      0
C        C     0.92787      0.50974      0.47107      0
C        C     0.84856      0.37783      0.45781      0
C        C     0.8505       0.38052      0.47198      0
C        C     0.80317      0.31982      0.47951      0
C        C     0.80534      0.3224       0.49368      0
C        C     0.69135      0.20639      0.48042      0
C        C     0.6939       0.20862      0.49458      0
C        C     0.63382      0.16001      0.50212      0
C        C     0.63649      0.16201      0.51628      0
C        C     0.50511      0.0795       0.50302      0
C        C     0.50789      0.08092      0.51718      0
C        C     0.44418      0.05178      0.52472      0
C        C     0.44693      0.05289      0.53888      0
C        C     0.3181       0.01639      0.52562      0
C        C     0.32068      0.01679      0.53979      0
C        C     0.263        0.01154      0.54732      0
C        C     0.26543      0.01159      0.56149      0
C        C     0.15868      0.02664      0.54823      0
C        C     0.16067      0.02596      0.56239      0
C        C     0.11778      0.0454       0.56993      0
C        C     0.11951      0.04439      0.58409      0
C        C     0.05104      0.1087       0.57083      0
C        C     0.05214      0.10705      0.585        0
C        C     0.03053      0.14822      0.59253      0
C        C     0.03131      0.1463       0.6067       0
C        C     0.01151      0.25013      0.59344      0
C        C     0.01155      0.24774      0.6076       0
C        C     0.01451      0.3044       0.61514      0
C        C     0.01421      0.30186      0.6293       0
C        C     0.04608      0.42945      0.61604      0
C        C     0.04506      0.42671      0.6302       0
C        C     0.07213      0.49026      0.63774      0
C        C     0.0708       0.48749      0.6519       0
C        C     0.1495       0.61948      0.63864      0
C        C     0.14758      0.61679      0.65281      0
C        C     0.19466      0.6776       0.66034      0
C        C     0.1925       0.67501      0.67451      0
C        C     0.3061       0.79138      0.66125      0
C        C     0.30356      0.78915      0.67541      0
C        C     0.36351      0.83799      0.68295      0
C        C     0.36085      0.83598      0.69711      0
C        C     0.49211      0.91908      0.68385      0
C        C     0.48934      0.91765      0.69802      0
C        C     0.55307      0.94711      0.70555      0
C        C     0.55031      0.94599      0.71972      0
C        C     0.67932      0.98321      0.70646      0
C        C     0.67674      0.9828       0.72062      0
C        C     0.73457      0.98841      0.72816      0
C        C     0.73213      0.98834      0.74232      0
C        C     0.83933      0.97404      0.72906      0
C        C     0.83732      0.9747       0.74322      0
C        C     0.88049      0.95561      0.75076      0
C        C     0.87874      0.95661      0.76492      0
C        C     0.94786      0.89295      0.75166      0
C        C     0.94674      0.89459      0.76583      0
C        C     0.96869      0.8537       0.77336      0
C        C     0.9679       0.85561      0.78753      0
C        C     0.98845      0.75226      0.77427      0
C        C     0.98839      0.75463      0.78843      0
C        C     0.97426      0.6356       0.456        0
C        C     0.97492      0.63826      0.47017      0
C        C     0.95595      0.57604      0.4777       0
C        C     0.95694      0.57878      0.49187      0
C        C     0.8935       0.44602      0.47861      0
C        C     0.89514      0.44877      0.49277      0
C        C     0.85434      0.38591      0.50031      0
C        C     0.85624      0.38861      0.51447      0
C        C     0.75305      0.26462      0.50121      0
C        C     0.75542      0.26705      0.51538      0
C        C     0.69898      0.21309      0.52291      0
C        C     0.70151      0.21534      0.53708      0
C        C     0.57421      0.11893      0.52382      0
C        C     0.57695      0.12067      0.53798      0
C        C     0.51344      0.0838       0.54552      0
C        C     0.51621      0.08525      0.55968      0
C        C     0.38411      0.03105      0.54642      0
C        C     0.38681      0.03183      0.56058      0
C        C     0.32585      0.01764      0.56812      0
C        C     0.32845      0.01808      0.58228      0
C        C     0.2116       0.01431      0.56902      0
C        C     0.21384      0.01401      0.58319      0
C        C     0.16469      0.02465      0.59072      0
C        C     0.16671      0.02402      0.60489      0
C        C     0.08283      0.07124      0.59163      0
C        C     0.08428      0.06992      0.60579      0
C        C     0.05439      0.10378      0.61333      0
C        C     0.05554      0.10216      0.62749      0
C        C     0.01735      0.19322      0.61423      0
C        C     0.01778      0.19106      0.6284       0
C        C     0.01169      0.24301      0.63593      0
C        C     0.01178      0.24065      0.6501       0
C        C     0.02508      0.36174      0.63684      0
C        C     0.02444      0.35908      0.651        0
C        C     0.04306      0.42122      0.65854      0
C        C     0.04209      0.41849      0.6727       0
C        C     0.10486      0.55123      0.65944      0
C        C     0.10324      0.54846      0.6736       0
C        C     0.14376      0.61139      0.68114      0
C        C     0.14186      0.60869      0.6953       0
C        C     0.24458      0.73295      0.68204      0
C        C     0.24222      0.7305       0.69621      0
C        C     0.29849      0.78466      0.70374      0
C        C     0.29596      0.7824       0.71791      0
C        C     0.42305      0.87933      0.70465      0
C        C     0.42031      0.87757      0.71881      0
C        C     0.48379      0.91475      0.72635      0
C        C     0.48102      0.91327      0.74051      0
C        C     0.61319      0.96817      0.72725      0
C        C     0.61049      0.96737      0.74142      0
C        C     0.67155      0.98192      0.74895      0
C        C     0.66895      0.98145      0.76312      0
C        C     0.78616      0.98599      0.74986      0
C        C     0.78391      0.98626      0.76402      0
C        C     0.83329      0.97598      0.77156      0
C        C     0.83125      0.9766       0.78572      0
C        C     0.91572      0.93008      0.77246      0
C        C     0.91426      0.93139      0.78662      0
C        C     0.94446      0.89784      0.79416      0
C        C     0.9433       0.89944      0.80832      0
C        C     0.98222      0.80894      0.79506      0
C        C     0.98176      0.81108      0.80923      0
C        C     0.98822      0.75935      0.81676      0
C        C     0.98811      0.7617       0.83093      0
C        C     0.98608      0.70067      0.4768       0
C        C     0.98635      0.7032       0.49096      0
C        C     0.97619      0.64358      0.4985       0
C        C     0.9768       0.64623      0.51266      0
C        C     0.93052      0.51529      0.4994       0
C        C     0.93182      0.51806      0.51357      0
C        C     0.89838      0.4543       0.5211       0
C        C     0.89998      0.45706      0.53527      0
C        C     0.80965      0.32758      0.52201      0
C        C     0.81179      0.33018      0.53617      0
C        C     0.76013      0.27195      0.54371      0
C        C     0.76248      0.27441      0.55787      0
C        C     0.64181      0.16604      0.54461      0
C        C     0.64446      0.16807      0.55878      0
C        C     0.58243      0.1242       0.56631      0
C        C     0.58516      0.12597      0.58048      0
C        C     0.45246      0.05515      0.56722      0
C        C     0.45522      0.05631      0.58138      0
C        C     0.39222      0.03345      0.58891      0
C        C     0.39493      0.03428      0.60308      0
C        C     0.27031      0.01175      0.58982      0
C        C     0.27277      0.01185      0.60398      0
C        C     0.21836      0.01348      0.61152      0
C        C     0.22063      0.01324      0.62568      0
C        C     0.12302      0.04241      0.61242      0
C        C     0.12479      0.04145      0.62659      0
C        C     0.08722      0.06731      0.63412      0
C        C     0.08871      0.06603      0.64829      0
C        C     0.0329       0.14249      0.63503      0
C        C     0.03373      0.14061      0.64919      0
C        C     0.01871      0.18678      0.65673      0
C        C     0.01919      0.18466      0.67089      0
C        C     0.01365      0.2968       0.65763      0
C        C     0.0134       0.29428      0.6718       0
C        C     0.0232       0.35377      0.67933      0
C        C     0.0226       0.35112      0.6935       0
C        C     0.06818      0.48194      0.68023      0
C        C     0.06688      0.47917      0.6944       0
C        C     0.10002      0.54294      0.70193      0
C        C     0.09844      0.54017      0.7161       0
C        C     0.18821      0.66982      0.70284      0
C        C     0.18608      0.66721      0.717        0
C        C     0.23752      0.72559      0.72454      0
C        C     0.23519      0.72313      0.7387       0
C        C     0.35554      0.83193      0.72544      0
C        C     0.35289      0.82989      0.73961      0
C        C     0.41484      0.87403      0.74714      0
C        C     0.41211      0.87223      0.76131      0
C        C     0.54478      0.94369      0.74805      0
C        C     0.54202      0.94252      0.76221      0
C        C     0.60507      0.96572      0.76975      0
C        C     0.60236      0.96487      0.78391      0
C        C     0.72723      0.98815      0.77065      0
C        C     0.72477      0.98803      0.78482      0
C        C     0.77937      0.98676      0.79235      0
C        C     0.77709      0.98699      0.80652      0
C        C     0.87521      0.95855      0.79325      0
C        C     0.87343      0.9595       0.80742      0
C        C     0.91129      0.93397      0.81495      0
C        C     0.90978      0.93524      0.82912      0
C        C     0.96627      0.85939      0.81586      0
C        C     0.96544      0.86127      0.83002      0
C        C     0.98081      0.81534      0.83756      0
C        C     0.98031      0.81745      0.85172      0
C        C     0.98684      0.70823      0.51929      0
C        C     0.98706      0.71074      0.53346      0
C        C     0.95887      0.58425      0.5202       0
C        C     0.95981      0.58698      0.53436      0
C        C     0.93439      0.52361      0.5419       0
C        C     0.93565      0.52638      0.55606      0
C        C     0.86002      0.39402      0.5428       0
C        C     0.86189      0.39673      0.55697      0
C        C     0.81605      0.3354       0.5645       0
C        C     0.81816      0.33802      0.57867      0
C        C     0.70656      0.21987      0.56541      0
C        C     0.70907      0.22215      0.57957      0
C        C     0.64976      0.17216      0.58711      0
C        C     0.6524       0.17423      0.60127      0
C        C     0.52176      0.08822      0.58801      0
C        C     0.52453      0.08972      0.60218      0
C        C     0.46075      0.05866      0.60971      0
C        C     0.46352      0.05986      0.62388      0
C        C     0.33366      0.01903      0.61061      0
C        C     0.33627      0.01952      0.62478      0
C        C     0.2777       0.01211      0.63231      0
C        C     0.28017      0.01225      0.64648      0
C        C     0.17079      0.0228       0.63322      0
C        C     0.17285      0.02221      0.64738      0
C        C     0.12837      0.03956      0.65492      0
C        C     0.13017      0.03864      0.66908      0
C        C     0.05787      0.09896      0.65582      0
C        C     0.05906      0.09739      0.66999      0
C        C     0.03541      0.13687      0.67752      0
C        C     0.03628      0.13502      0.69169      0
C        C     0.01201      0.23596      0.67843      0
C        C     0.01215      0.23363      0.69259      0
C        C     0.01294      0.28926      0.70013      0
C        C     0.01273      0.28676      0.71429      0
C        C     0.04019      0.41302      0.70103      0
C        C     0.03926      0.41029      0.7152       0
C        C     0.06435      0.47362      0.72273      0
C        C     0.0631       0.47085      0.7369       0
C        C     0.13811      0.60327      0.72363      0
C        C     0.13625      0.60055      0.7378       0
C        C     0.18184      0.66198      0.74533      0
C        C     0.17974      0.65936      0.7595       0
C        C     0.29093      0.77785      0.74624      0
C        C     0.28843      0.77556      0.7604       0
C        C     0.3476       0.82577      0.76794      0
C        C     0.34497      0.8237       0.7821       0
C        C     0.47547      0.91028      0.76884      0
C        C     0.4727       0.90877      0.78301      0
C        C     0.53648      0.94014      0.79054      0
C        C     0.53372      0.93893      0.80471      0
C        C     0.66373      0.98048      0.79145      0
C        C     0.66111      0.97997      0.80561      0
C        C     0.71983      0.98775      0.81315      0
C        C     0.71735      0.98758      0.82731      0
C        C     0.82715      0.97779      0.81405      0
C        C     0.82508      0.97836      0.82822      0
C        C     0.86983      0.96136      0.83575      0
C        C     0.86801      0.96226      0.84992      0
C        C     0.94094      0.90261      0.83665      0
C        C     0.93974      0.90418      0.85082      0
C        C     0.96372      0.86498      0.85835      0
C        C     0.96284      0.86682      0.87252      0
C        C     0.98785      0.76637      0.85926      0
C        C     0.98769      0.76869      0.87342      0
C        C     0.97798      0.65152      0.54099      0
C        C     0.97855      0.65415      0.55516      0
C        C     0.96166      0.59244      0.56269      0
C        C     0.96256      0.59516      0.57686      0
C        C     0.90314      0.46259      0.5636       0
C        C     0.9047       0.46536      0.57776      0
C        C     0.8656       0.40216      0.5853       0
C        C     0.86743      0.40489      0.59946      0
C        C     0.76714      0.27935      0.5862       0
C        C     0.76946      0.28182      0.60037      0
C        C     0.71407      0.22673      0.6079       0
C        C     0.71656      0.22904      0.62207      0
C        C     0.59062      0.12957      0.60881      0
C        C     0.59335      0.13138      0.62297      0
C        C     0.53007      0.09275      0.63051      0
C        C     0.53284      0.09429      0.64467      0
C        C     0.40035      0.03599      0.63141      0
C        C     0.40307      0.03686      0.64558      0
C        C     0.34151      0.02055      0.65311      0
C        C     0.34414      0.0211       0.66728      0
C        C     0.2252       0.0128       0.65401      0
C        C     0.2275       0.0126       0.66818      0
C        C     0.17699      0.02109      0.67571      0
C        C     0.17908      0.02055      0.68988      0
C        C     0.09174      0.06351      0.67662      0
C        C     0.09327      0.06227      0.69078      0
C        C     0.06147      0.09427      0.69832      0
C        C     0.0627       0.09273      0.71248      0
C        C     0.0202       0.18044      0.69922      0
C        C     0.02073      0.17835      0.71339      0
C        C     0.01248      0.229        0.72092      0
C        C     0.01267      0.22669      0.73509      0
C        C     0.02145      0.34585      0.72183      0
C        C     0.0209       0.34322      0.73599      0
C        C     0.03744      0.40484      0.74353      0
C        C     0.03655      0.40212      0.75769      0
C        C     0.0953       0.53464      0.74443      0
C        C     0.09375      0.53187      0.7586       0
C        C     0.13257      0.59511      0.76613      0
C        C     0.13075      0.59239      0.7803       0
C        C     0.23054      0.71818      0.76703      0
C        C     0.22823      0.71569      0.7812       0
C        C     0.28344      0.77096      0.78873      0
C        C     0.28095      0.76865      0.8029       0
C        C     0.40665      0.86862      0.78964      0
C        C     0.40393      0.86679      0.8038       0
C        C     0.46716      0.90571      0.81134      0
C        C     0.46439      0.90415      0.8255       0
C        C     0.59693      0.96314      0.81224      0
C        C     0.59421      0.96225      0.82641      0
C        C     0.65586      0.9789       0.83394      0
C        C     0.65323      0.97835      0.84811      0
C        C     0.7725       0.9874       0.83485      0
C        C     0.77019      0.98758      0.84901      0
C        C     0.82092      0.97945      0.85655      0
C        C     0.81882      0.97998      0.87071      0
C        C     0.90673      0.93773      0.85745      0
C        C     0.90519      0.93895      0.87162      0
C        C     0.9373       0.90727      0.87915      0
C        C     0.93605      0.9088       0.89332      0
C        C     0.97927      0.82165      0.88005      0
C        C     0.97872      0.82374      0.89422      0
C        C     0.98733      0.77331      0.90175      0
C        C     0.98713      0.7756       0.91592      0
C        C     0.98746      0.71573      0.56179      0
C        C     0.98764      0.71822      0.57596      0
C        C     0.97963      0.65941      0.58349      0
C        C     0.98015      0.66203      0.59766      0
C        C     0.93814      0.53192      0.58439      0
C        C     0.93936      0.53469      0.59856      0
C        C     0.90778      0.4709       0.60609      0
C        C     0.9093       0.47367      0.62026      0
C        C     0.82235      0.34326      0.607        0
C        C     0.82443      0.34589      0.62116      0
C        C     0.77407      0.28681      0.6287       0
C        C     0.77637      0.28931      0.64286      0
C        C     0.65766      0.17838      0.6296       0
C        C     0.66028      0.18048      0.64377      0
C        C     0.59879      0.13505      0.6513       0
C        C     0.60151      0.1369       0.66547      0
C        C     0.46905      0.06229      0.65221      0
C        C     0.47182      0.06353      0.66637      0
C        C     0.40852      0.03866      0.67391      0
C        C     0.41125      0.03958      0.68807      0
C        C     0.28514      0.0126       0.67481      0
C        C     0.28764      0.0128       0.68898      0
C        C     0.23212      0.01225      0.69651      0
C        C     0.23445      0.0121       0.71067      0
C        C     0.13382      0.03685      0.69741      0
C        C     0.13567      0.03597      0.71158      0
C        C     0.09637      0.05984      0.71911      0
C        C     0.09794      0.05864      0.73328      0
C        C     0.03805      0.13135      0.72002      0
C        C     0.03896      0.12954      0.73418      0
C        C     0.02184      0.17419      0.74172      0
C        C     0.02242      0.17213      0.75588      0
C        C     0.01236      0.28178      0.74262      0
C        C     0.0122       0.2793       0.75679      0
C        C     0.01985      0.33797      0.76432      0
C        C     0.01935      0.33535      0.77849      0
C        C     0.06064      0.46531      0.76523      0
C        C     0.05943      0.46255      0.77939      0
C        C     0.0907       0.52633      0.78693      0
C        C     0.08919      0.52356      0.80109      0
C        C     0.17557      0.65411      0.78783      0
C        C     0.1735       0.65147      0.802        0
C        C     0.22363      0.71069      0.80953      0
C        C     0.22135      0.70819      0.82369      0
C        C     0.33972      0.81952      0.81043      0
C        C     0.3371       0.81742      0.8246       0
C        C     0.39849      0.8631       0.83213      0
C        C     0.39578      0.86124      0.8463       0
C        C     0.52818      0.93647      0.83304      0
C        C     0.52541      0.93521      0.8472       0
C        C     0.58875      0.96042      0.85474      0
C        C     0.58602      0.95948      0.8689       0
C        C     0.71236      0.9872       0.85564      0
C        C     0.70986      0.98699      0.86981      0
C        C     0.76555      0.9879       0.87734      0
C        C     0.76322      0.98803      0.89151      0
C        C     0.86433      0.96403      0.87825      0
C        C     0.86248      0.96489      0.89241      0
C        C     0.90206      0.94136      0.89995      0
C        C     0.90048      0.94254      0.91411      0
C        C     0.96104      0.87046      0.90085      0
C        C     0.96011      0.87227      0.91501      0
C        C     0.97758      0.82787      0.92255      0
C        C     0.97699      0.82992      0.93671      0
C        C     0.98794      0.72317      0.60429      0
C        C     0.98807      0.72564      0.61845      0
C        C     0.96432      0.6006       0.60519      0
C        C     0.96517      0.60331      0.61935      0
C        C     0.94176      0.54022      0.62689      0
C        C     0.94294      0.54299      0.64105      0
C        C     0.87106      0.41034      0.62779      0
C        C     0.87286      0.41307      0.64196      0
C        C     0.82856      0.35117      0.64949      0
C        C     0.83061      0.35382      0.66366      0
C        C     0.72152      0.23367      0.6504       0
C        C     0.72399      0.236        0.66456      0
C        C     0.66552      0.1847       0.6721       0
C        C     0.66813      0.18682      0.68626      0
C        C     0.53838      0.09741      0.673        0
C        C     0.54114      0.09899      0.68717      0
C        C     0.47737      0.06605      0.6947       0
C        C     0.48014      0.06734      0.70887      0
C        C     0.34941      0.02222      0.69561      0
C        C     0.35205      0.02281      0.70977      0
C        C     0.29265      0.01324      0.71731      0
C        C     0.29517      0.01348      0.73147      0
C        C     0.18329      0.01951      0.71821      0
C        C     0.1854       0.01902      0.73237      0
C        C     0.13939      0.03427      0.73991      0
C        C     0.14127      0.03344      0.75407      0
C        C     0.06521      0.08969      0.74081      0
C        C     0.06648      0.08819      0.75498      0
C        C     0.04083      0.12594      0.76251      0
C        C     0.04179      0.12416      0.77668      0
C        C     0.01309      0.22211      0.76342      0
C        C     0.01332      0.21983      0.77758      0
C        C     0.01193      0.27436      0.78512      0
C        C     0.01181      0.27191      0.79928      0
C        C     0.03483      0.39669      0.78602      0
C        C     0.03399      0.39397      0.80019      0
C        C     0.05706      0.45701      0.80772      0
C        C     0.0559       0.45425      0.82189      0
C        C     0.12714      0.58693      0.80863      0
C        C     0.12535      0.5842       0.82279      0
C        C     0.16939      0.64618      0.83033      0
C        C     0.16736      0.64353      0.84449      0
C        C     0.27601      0.764        0.83123      0
C        C     0.27354      0.76166      0.84539      0
C        C     0.33187      0.81318      0.85293      0
C        C     0.32927      0.81104      0.86709      0
C        C     0.45886      0.90101      0.85383      0
C        C     0.45609      0.89942      0.868        0
C        C     0.51986      0.93266      0.87553      0
C        C     0.51709      0.93137      0.8897       0
C        C     0.64795      0.97719      0.87644      0
C        C     0.6453       0.97659      0.8906       0
C        C     0.70483      0.98652      0.89814      0
C        C     0.70231      0.98626      0.9123       0
C        C     0.8146       0.98098      0.89904      0
C        C     0.81247      0.98146      0.91321      0
C        C     0.85873      0.96656      0.92074      0
C        C     0.85684      0.96738      0.93491      0
C        C     0.93352      0.91181      0.92165      0
C        C     0.93223      0.9133       0.93581      0
C        C     0.95821      0.87584      0.94335      0
C        C     0.95724      0.8776       0.95751      0
C        C     0.98668      0.78017      0.94425      0
C        C     0.98643      0.78244      0.95841      0
C        C     0.98114      0.66726      0.62599      0
C        C     0.98162      0.66986      0.64015      0
C        C     0.96684      0.60873      0.64769      0
C        C     0.96765      0.61144      0.66185      0
C        C     0.91231      0.47922      0.64859      0
C        C     0.91379      0.48199      0.66275      0
C        C     0.87643      0.41853      0.67029      0
C        C     0.87819      0.42127      0.68445      0
C        C     0.78093      0.29433      0.67119      0
C        C     0.78319      0.29685      0.68536      0
C        C     0.72891      0.24069      0.69289      0
C        C     0.73136      0.24305      0.70706      0
C        C     0.60693      0.14064      0.6938       0
C        C     0.60963      0.14253      0.70796      0
C        C     0.54667      0.10219      0.7155       0
C        C     0.54943      0.1038       0.72966      0
C        C     0.41671      0.04147      0.7164       0
C        C     0.41945      0.04243      0.73057      0
C        C     0.35735      0.02403      0.7381       0
C        C     0.36001      0.02466      0.75227      0
C        C     0.23913      0.01185      0.73901      0
C        C     0.24148      0.01175      0.75317      0
C        C     0.18967      0.01808      0.76071      0
C        C     0.19182      0.01763      0.77487      0
C        C     0.10112      0.05629      0.76161      0
C        C     0.10273      0.05513      0.77577      0
C        C     0.06907      0.08523      0.78331      0
C        C     0.07038      0.08377      0.79747      0
C        C     0.02362      0.16803      0.78421      0
C        C     0.02424      0.166        0.79838      0
C        C     0.01383      0.2153       0.80591      0
C        C     0.01412      0.21305      0.82008      0
C        C     0.01838      0.33014      0.80682      0
C        C     0.01793      0.32754      0.82098      0
C        C     0.03235      0.38856      0.82852      0
C        C     0.03156      0.38586      0.84268      0
C        C     0.08621      0.51801      0.82942      0
C        C     0.08474      0.51524      0.84359      0
C        C     0.12181      0.57873      0.85112      0
C        C     0.12006      0.57599      0.86529      0
C        C     0.21681      0.70315      0.85203      0
C        C     0.21455      0.70062      0.86619      0
C        C     0.26864      0.75695      0.87372      0
C        C     0.2662       0.75459      0.88789      0
C        C     0.39037      0.85747      0.87463      0
C        C     0.38766      0.85558      0.88879      0
C        C     0.45057      0.8962       0.89633      0
C        C     0.44781      0.89457      0.91049      0
C        C     0.58055      0.95757      0.89723      0
C        C     0.57782      0.95659      0.9114       0
C        C     0.63999      0.97534      0.91893      0
C        C     0.63733      0.97469      0.9331       0
C        C     0.75852      0.98825      0.91984      0
C        C     0.75616      0.98834      0.934        0
C        C     0.80818      0.98237      0.94154      0
C        C     0.80602      0.9828       0.9557       0
C        C     0.89727      0.94487      0.94244      0
C        C     0.89565      0.94601      0.95661      0
C        C     0.92962      0.91623      0.96414      0
C        C     0.92829      0.91768      0.97831      0
C        C     0.97576      0.834        0.96505      0
C        C     0.97512      0.83602      0.97921      0
C        C     0.98588      0.78695      0.98674      0
C        C     0.98828      0.73054      0.64678      0
C        C     0.98836      0.73299      0.66095      0
C        C     0.98252      0.67505      0.66848      0
C        C     0.98294      0.67764      0.68265      0
C        C     0.94525      0.54851      0.66939      0
C        C     0.94638      0.55127      0.68355      0
C        C     0.91671      0.48754      0.69108      0
C        C     0.91816      0.49031      0.70525      0
C        C     0.83467      0.35912      0.69199      0
C        C     0.83669      0.36178      0.70615      0
C        C     0.7877       0.30191      0.71369      0
C        C     0.78994      0.30445      0.72785      0
C        C     0.67333      0.1911       0.71459      0
C        C     0.67592      0.19326      0.72876      0
C        C     0.61504      0.14633      0.73629      0
C        C     0.61773      0.14825      0.75046      0
C        C     0.48569      0.06994      0.7372       0
C        C     0.48846      0.07127      0.75136      0
C        C     0.42493      0.0444       0.7589       0
C        C     0.42767      0.04541      0.77306      0
C        C     0.30022      0.01402      0.7598       0
C        C     0.30275      0.01431      0.77397      0
C        C     0.2462       0.01159      0.7815       0
C        C     0.24858      0.01154      0.79567      0
C        C     0.14506      0.03182      0.7824       0
C        C     0.14697      0.03103      0.79657      0
C        C     0.10598      0.05287      0.8041       0
C        C     0.10763      0.05176      0.81827      0
C        C     0.04374      0.12064      0.80501      0
C        C     0.04474      0.1189       0.81917      0
C        C     0.02553      0.16197      0.82671      0
C        C     0.0262       0.15998      0.84087      0
C        C     0.01164      0.26701      0.82761      0
C        C     0.01157      0.26458      0.84178      0
C        C     0.01706      0.32236      0.84931      0
C        C     0.01665      0.31977      0.86348      0
C        C     0.05362      0.44873      0.85022      0
C        C     0.0525       0.44597      0.86438      0
C        C     0.08184      0.50969      0.87192      0
C        C     0.08042      0.50691      0.88608      0
C        C     0.16331      0.63822      0.87282      0
C        C     0.16131      0.63555      0.88699      0
C        C     0.21006      0.69555      0.89452      0
C        C     0.20784      0.693        0.90869      0
C        C     0.32408      0.80674      0.89542      0
C        C     0.3215       0.80458      0.90959      0
C        C     0.38227      0.85175      0.91712      0
C        C     0.37958      0.84982      0.93129      0
C        C     0.51154      0.92873      0.91803      0
C        C     0.50876      0.9274       0.93219      0
C        C     0.57233      0.95459      0.93973      0
C        C     0.56959      0.95356      0.95389      0
C        C     0.69725      0.98569      0.94063      0
C        C     0.6947       0.98538      0.9548       0
C        C     0.75142      0.98846      0.96233      0
C        C     0.74904      0.9885       0.9765       0
C        C     0.85303      0.96897      0.96324      0
C        C     0.85111      0.96974      0.9774       0
C        C     0.89237      0.94824      0.98494      0
C        C     0.89071      0.94934      0.9991       0
C        C     0.95526      0.8811       0.98584      0
C        C     0.98848      0.73785      0.68928      0
C        C     0.98851      0.74027      0.70344      0
C        C     0.96922      0.61683      0.69018      0
C        C     0.96999      0.61953      0.70435      0
C        C     0.94861      0.55679      0.71188      0
C        C     0.9497       0.55955      0.72605      0
C        C     0.88168      0.42675      0.71278      0
C        C     0.8834       0.4295       0.72695      0
C        C     0.84069      0.36711      0.73448      0
C        C     0.84267      0.36979      0.74865      0
C        C     0.73623      0.24779      0.73539      0
C        C     0.73866      0.25017      0.74955      0
C        C     0.68108      0.1976       0.75709      0
C        C     0.68366      0.19978      0.77125      0
C        C     0.55495      0.10708      0.75799      0
C        C     0.55771      0.10873      0.77216      0
C        C     0.49401      0.07395      0.77969      0
C        C     0.49679      0.07532      0.79386      0
C        C     0.36534      0.02598      0.7806       0
C        C     0.36801      0.02665      0.79476      0
C        C     0.30785      0.01494      0.8023       0
C        C     0.3104       0.01528      0.81646      0
C        C     0.19615      0.01678      0.8032       0
C        C     0.19832      0.01638      0.81737      0
C        C     0.15083      0.02951      0.8249       0
C        C     0.15278      0.02877      0.83907      0
C        C     0.07305      0.08089      0.8258       0
C        C     0.07441      0.07947      0.83997      0
C        C     0.04678      0.11545      0.8475       0
C        C     0.04783      0.11375      0.86167      0
C        C     0.01472      0.20858      0.84841      0
C        C     0.01505      0.20636      0.86257      0
C        C     0.01149      0.25973      0.87011      0
C        C     0.01147      0.25732      0.88427      0
C        C     0.03001      0.38047      0.87101      0
C        C     0.02926      0.37778      0.88518      0
C        C     0.0503       0.44045      0.89271      0
C        C     0.04922      0.4377       0.90688      0
C        C     0.1166       0.5705       0.89362      0
C        C     0.11488      0.56775      0.90778      0
C        C     0.15733      0.63021      0.91532      0
C        C     0.15536      0.62754      0.92948      0
C        C     0.26134      0.74983      0.91622      0
C        C     0.25892      0.74744      0.93039      0
C        C     0.31634      0.80022      0.93792      0
C        C     0.31377      0.79802      0.95209      0
C        C     0.44229      0.89127      0.93882      0
C        C     0.43954      0.8896       0.95299      0
C        C     0.50321      0.92468      0.96052      0
C        C     0.50044      0.9233       0.97469      0
C        C     0.63199      0.97335      0.96143      0
C        C     0.62932      0.97265      0.97559      0
C        C     0.6896       0.98472      0.98313      0
C        C     0.68704      0.98437      0.99729      0
C        C     0.80168      0.98362      0.98403      0
C        C     0.79949      0.984        0.9982       0
C        C     0.98375      0.6828       0.71098      0
C        C     0.98413      0.68537      0.72514      0
C        C     0.97147      0.6249       0.73268      0
C        C     0.97219      0.62758      0.74684      0
C        C     0.921        0.49586      0.73358      0
C        C     0.9224       0.49864      0.74775      0
C        C     0.88682      0.435        0.75528      0
C        C     0.88851      0.43775      0.76945      0
C        C     0.79438      0.30955      0.75618      0
C        C     0.79659      0.31211      0.77035      0
C        C     0.74349      0.25495      0.77788      0
C        C     0.74589      0.25736      0.79205      0
C        C     0.62311      0.15213      0.77879      0
C        C     0.6258       0.15408      0.79295      0
C        C     0.56322      0.11208      0.80049      0
C        C     0.56597      0.11378      0.81465      0
C        C     0.43316      0.04748      0.80139      0
C        C     0.43591      0.04853      0.81556      0
C        C     0.37336      0.02806      0.82309      0
C        C     0.37604      0.02878      0.83726      0
C        C     0.25335      0.01147      0.824        0
C        C     0.25575      0.01147      0.83816      0
C        C     0.20271      0.01563      0.8457       0
C        C     0.20492      0.01527      0.85986      0
C        C     0.11096      0.04958      0.8466       0
C        C     0.11265      0.04851      0.86077      0
C        C     0.07716      0.07667      0.8683       0
C        C     0.07856      0.07529      0.88247      0
C        C     0.02758      0.15601      0.8692       0
C        C     0.0283       0.15405      0.88337      0
C        C     0.01575      0.20194      0.8909       0
C        C     0.01613      0.19974      0.90507      0
C        C     0.01587      0.31463      0.89181      0
C        C     0.01551      0.31206      0.90597      0
C        C     0.02781      0.37242      0.91351      0
C        C     0.0271       0.36974      0.92767      0
C        C     0.0776       0.50136      0.91441      0
C        C     0.07621      0.49859      0.92858      0
C        C     0.11149      0.56225      0.93611      0
C        C     0.10982      0.5595       0.95028      0
C        C     0.20341      0.68789      0.93702      0
C        C     0.20121      0.68533      0.95118      0
C        C     0.25411      0.74264      0.95872      0
C        C     0.25172      0.74023      0.97288      0
C        C     0.3742       0.84592      0.95962      0
C        C     0.37153      0.84395      0.97379      0
C        C     0.43403      0.88622      0.98132      0
C        C     0.43128      0.88452      0.99549      0
C        C     0.56409      0.95147      0.98222      0
C        C     0.56133      0.9504       0.99639      0
C        C     0.98484      0.6905       0.75347      0
C        C     0.98517      0.69305      0.76764      0
C        C     0.95184      0.56505      0.75438      0
C        C     0.95289      0.5678       0.76854      0
C        C     0.92516      0.50419      0.77608      0
C        C     0.92652      0.50696      0.79024      0
C        C     0.84661      0.37515      0.77698      0
C        C     0.84856      0.37783      0.79115      0
C        C     0.80099      0.31724      0.79868      0
C        C     0.80317      0.31982      0.81284      0
C        C     0.68879      0.20418      0.79958      0
C        C     0.69135      0.20639      0.81375      0
C        C     0.63115      0.15802      0.82128      0
C        C     0.63382      0.16001      0.83545      0
C        C     0.50234      0.07809      0.82219      0
C        C     0.50511      0.0795       0.83635      0
C        C     0.44142      0.05068      0.84389      0
C        C     0.44418      0.05178      0.85805      0
C        C     0.31553      0.016        0.84479      0
C        C     0.3181       0.01639      0.85896      0
C        C     0.26058      0.0115       0.86649      0
C        C     0.263        0.01154      0.88066      0
C        C     0.1567       0.02734      0.8674       0
C        C     0.15868      0.02664      0.88156      0
C        C     0.11605      0.04642      0.8891       0
C        C     0.11778      0.0454       0.90326      0
C        C     0.04996      0.11037      0.89         0
C        C     0.05104      0.1087       0.90417      0
C        C     0.02977      0.15015      0.9117       0
C        C     0.03053      0.14822      0.92586      0
C        C     0.01148      0.25251      0.9126       0
C        C     0.01151      0.25013      0.92677      0
C        C     0.01483      0.30695      0.9343       0
C        C     0.01451      0.3044       0.94847      0
C        C     0.04711      0.4322       0.93521      0
C        C     0.04608      0.42945      0.94937      0
C        C     0.07348      0.49304      0.95691      0
C        C     0.07213      0.49026      0.97107      0
C        C     0.15144      0.62217      0.95781      0
C        C     0.1495       0.61948      0.97198      0
C        C     0.19683      0.68018      0.97951      0
C        C     0.19466      0.6776       0.99368      0
C        C     0.30865      0.79361      0.98042      0
C        C     0.3061       0.79138      0.99458      0
C        C     0.97359      0.63293      0.77517      0
C        C     0.97426      0.6356       0.78934      0
C        C     0.95494      0.57329      0.79687      0
C        C     0.95595      0.57604      0.81104      0
C        C     0.89185      0.44326      0.79778      0
C        C     0.8935       0.44602      0.81194      0
C        C     0.85242      0.38321      0.81948      0
C        C     0.85434      0.38591      0.83364      0
C        C     0.75067      0.26219      0.82038      0
C        C     0.75305      0.26462      0.83454      0
C        C     0.69644      0.21085      0.84208      0
C        C     0.69898      0.21309      0.85624      0
C        C     0.57146      0.1172       0.84298      0
C        C     0.57421      0.11893      0.85715      0
C        C     0.51066      0.08235      0.86468      0
C        C     0.51344      0.0838       0.87885      0
C        C     0.38142      0.03028      0.86559      0
C        C     0.38411      0.03105      0.87975      0
C        C     0.32326      0.0172       0.88729      0
C        C     0.32585      0.01764      0.90145      0
C        C     0.20936      0.01461      0.88819      0
C        C     0.2116       0.01431      0.90236      0
C        C     0.16268      0.0253       0.90989      0
C        C     0.16469      0.02465      0.92406      0
C        C     0.08139      0.07258      0.9108       0
C        C     0.08283      0.07124      0.92496      0
C        C     0.05326      0.10541      0.9325       0
C        C     0.05439      0.10378      0.94666      0
C        C     0.01693      0.19538      0.9334       0
C        C     0.01735      0.19322      0.94756      0
C        C     0.01161      0.24537      0.9551       0
C        C     0.01169      0.24301      0.96926      0
C        C     0.02574      0.3644       0.956        0
C        C     0.02508      0.36174      0.97017      0
C        C     0.04405      0.42396      0.9777       0
C        C     0.04306      0.42122      0.99187      0
C        C     0.1065       0.55398      0.97861      0
C        C     0.10486      0.55123      0.99277      0
C        C     0.98579      0.69814      0.79597      0
C        C     0.98608      0.70067      0.81013      0
C        C     0.97556      0.64092      0.81767      0
C        C     0.97619      0.64358      0.83183      0
C        C     0.9292       0.51251      0.81857      0
C        C     0.93052      0.51529      0.83274      0
C        C     0.89676      0.45154      0.84027      0
C        C     0.89838      0.4543       0.85444      0
C        C     0.8075       0.32499      0.84118      0
C        C     0.80965      0.32758      0.85534      0
C        C     0.75778      0.2695       0.86288      0
C        C     0.76013      0.27195      0.87704      0
C        C     0.63915      0.16402      0.86378      0
C        C     0.64181      0.16604      0.87794      0
C        C     0.57969      0.12243      0.88548      0
C        C     0.58243      0.1242       0.89964      0
C        C     0.44969      0.05401      0.88638      0
C        C     0.45246      0.05515      0.90055      0
C        C     0.38951      0.03263      0.90808      0
C        C     0.39222      0.03345      0.92225      0
C        C     0.26787      0.01166      0.90899      0
C        C     0.27031      0.01175      0.92315      0
C        C     0.21609      0.01374      0.93069      0
C        C     0.21836      0.01348      0.94485      0
C        C     0.12126      0.04339      0.93159      0
C        C     0.12302      0.04241      0.94576      0
C        C     0.08574      0.06861      0.95329      0
C        C     0.08722      0.06731      0.96746      0
C        C     0.0321       0.14439      0.9542       0
C        C     0.0329       0.14249      0.96836      0
C        C     0.01824      0.18892      0.97589      0
C        C     0.01871      0.18678      0.99006      0
C        C     0.01392      0.29933      0.9768       0
C        C     0.01365      0.2968       0.99096      0
C        C     0.02381      0.35642      0.9985       0
C        C     0.06948      0.48471      0.9994       0
C        C     0.9866       0.70572      0.83846      0
C        C     0.98684      0.70823      0.85263      0
C        C     0.95791      0.58151      0.83937      0
C        C     0.95887      0.58425      0.85353      0
C        C     0.93312      0.52083      0.86107      0
C        C     0.93439      0.52361      0.87523      0
C        C     0.85814      0.39131      0.86197      0
C        C     0.86002      0.39402      0.87614      0
C        C     0.81392      0.33279      0.88367      0
C        C     0.81605      0.3354       0.89784      0
C        C     0.70404      0.2176       0.88457      0
C        C     0.70656      0.21987      0.89874      0
C        C     0.64711      0.17011      0.90627      0
C        C     0.64976      0.17216      0.92044      0
C        C     0.51898      0.08673      0.90718      0
C        C     0.52176      0.08822      0.92134      0
C        C     0.45798      0.05748      0.92888      0
C        C     0.46075      0.05866      0.94304      0
C        C     0.33105      0.01855      0.92978      0
C        C     0.33366      0.01903      0.94395      0
C        C     0.27523      0.01197      0.95148      0
C        C     0.2777       0.01211      0.96565      0
C        C     0.16875      0.0234       0.95239      0
C        C     0.17079      0.0228       0.96655      0
C        C     0.12657      0.0405       0.97409      0
C        C     0.12837      0.03956      0.98825      0
C        C     0.0567       0.10056      0.97499      0
C        C     0.05787      0.09896      0.98916      0
C        C     0.03456      0.13873      0.99669      0
C        C     0.01189      0.2383       0.99759      0
C        C     0.9774       0.64888      0.86016      0
C        C     0.97798      0.65152      0.87433      0
C        C     0.96074      0.58971      0.88186      0
C        C     0.96166      0.59244      0.89603      0
C        C     0.90156      0.45983      0.88277      0
C        C     0.90314      0.46259      0.89693      0
C        C     0.86375      0.39945      0.90447      0
C        C     0.8656       0.40216      0.91863      0
C        C     0.76481      0.27687      0.90537      0
C        C     0.76714      0.27935      0.91954      0
C        C     0.71157      0.22444      0.92707      0
C        C     0.71407      0.22673      0.94124      0
C        C     0.58789      0.12777      0.92797      0
C        C     0.59062      0.12957      0.94214      0
C        C     0.5273       0.09123      0.94967      0
C        C     0.53007      0.09275      0.96384      0
C        C     0.39764      0.03513      0.95058      0
C        C     0.40035      0.03599      0.96474      0
C        C     0.33889      0.02003      0.97228      0
C        C     0.34151      0.02055      0.98644      0
C        C     0.22291      0.01301      0.97318      0
C        C     0.2252       0.0128       0.98735      0
C        C     0.17492      0.02164      0.99488      0
C        C     0.09022      0.06476      0.99579      0
C        C     0.98727      0.71324      0.88096      0
C        C     0.98746      0.71573      0.89512      0
C        C     0.9791       0.65678      0.90266      0
C        C     0.97963      0.65941      0.91682      0
C        C     0.9369       0.52915      0.90356      0
C        C     0.93814      0.53192      0.91773      0
C        C     0.90625      0.46813      0.92526      0
C        C     0.90778      0.4709       0.93943      0
C        C     0.82026      0.34064      0.92617      0
C        C     0.82235      0.34326      0.94033      0
C        C     0.77177      0.28431      0.94787      0
C        C     0.77407      0.28681      0.96203      0
C        C     0.65503      0.1763       0.94877      0
C        C     0.65766      0.17838      0.96294      0
C        C     0.59607      0.13321      0.97047      0
C        C     0.59879      0.13505      0.98464      0
C        C     0.46628      0.06107      0.97137      0
C        C     0.46905      0.06229      0.98554      0
C        C     0.40579      0.03775      0.99307      0
C        C     0.28265      0.01242      0.99398      0
C        C     0.9878       0.7207       0.92345      0
C        C     0.98794      0.72317      0.93762      0
C        C     0.96345      0.59788      0.92436      0
C        C     0.96432      0.6006       0.93852      0
C        C     0.94057      0.53745      0.94606      0
C        C     0.94176      0.54022      0.96022      0
C        C     0.86925      0.40761      0.94696      0
C        C     0.87106      0.41034      0.96113      0
C        C     0.8265       0.34853      0.96866      0
C        C     0.82856      0.35117      0.98283      0
C        C     0.71905      0.23135      0.96957      0
C        C     0.72152      0.23367      0.98373      0
C        C     0.6629       0.18258      0.99127      0
C        C     0.53561      0.09585      0.99217      0
C        C     0.98065      0.66465      0.94515      0
C        C     0.98114      0.66726      0.95932      0
C        C     0.96601      0.60603      0.96685      0
C        C     0.96684      0.60873      0.98102      0
C        C     0.91081      0.47644      0.96776      0
C        C     0.91231      0.47922      0.98192      0
C        C     0.87465      0.4158       0.98946      0
C        C     0.77865      0.29181      0.99036      0
C        C     0.98819      0.72809      0.96595      0
C        C     0.98828      0.73054      0.98011      0
C        C     0.98207      0.67246      0.98765      0
C        C     0.9441       0.54575      0.98855      0


