data_SWNT-10-11

_audit_creation_method RASPA-1.0
_audit_creation_date 2012-1-22
_audit_author_name 'David Dubbeldam'

_cell_length_a    17.5904
_cell_length_b    17.5904
_cell_length_c    77.5039
_cell_angle_alpha 90
_cell_angle_beta  90
_cell_angle_gamma 120
_cell_volume      20768.5

_symmetry_cell_setting          triclinic
_symmetry_space_group_name_Hall 'P 1'
_symmetry_space_group_name_H-M  'P 1'
_symmetry_Int_Tables_number     1

_symmetry_equiv_pos_as_xyz 'x,y,z'

loop_
_atom_site_label
_atom_site_type_symbol
_atom_site_fract_x
_atom_site_fract_y
_atom_site_fract_z
_atom_site_charge
C1       C     0.96689      0.75411      0.00752      0
C2       C     0.96252      0.79015      0.02363      0
C3       C     0.92102      0.8865       0.00852      0
C4       C     0.9399       0.85699      0.02413      0
C5       C     0.92293      0.88399      0.04025      0
C6       C     0.96709      0.75037      0.03924      0
C7       C     0.96315      0.78666      0.05535      0
C8       C     0.96725      0.74662      0.07096      0
C9       C     0.96373      0.78314      0.08707      0
C10      C     0.73357      0.9675       0.01003      0
C11      C     0.87244      0.93092      0.00903      0
C12      C     0.84399      0.94616      0.02514      0
C13      C     0.87511      0.92918      0.04075      0
C14      C     0.84698      0.94482      0.05686      0
C15      C     0.94138      0.85411      0.05585      0
C16      C     0.9248       0.88144      0.07197      0
C17      C     0.94283      0.85119      0.08758      0
C18      C     0.92663      0.87886      0.10369      0
C19      C     0.96738      0.74284      0.10268      0
C20      C     0.96427      0.7796       0.1188       0
C21      C     0.96746      0.73903      0.1344       0
C22      C     0.96477      0.77603      0.15052      0
C23      C     0.64876      0.9582       0.01054      0
C24      C     0.60609      0.94734      0.02665      0
C25      C     0.7745       0.96497      0.02564      0
C26      C     0.7374       0.96748      0.04176      0
C27      C     0.77808      0.96449      0.05737      0
C28      C     0.74121      0.96741      0.07348      0
C29      C     0.87774      0.9274       0.07247      0
C30      C     0.84994      0.94343      0.08858      0
C31      C     0.88034      0.92559      0.10419      0
C32      C     0.85286      0.94201      0.12031      0
C33      C     0.94423      0.84825      0.1193       0
C34      C     0.92843      0.87624      0.13541      0
C35      C     0.94559      0.84527      0.15102      0
C36      C     0.93018      0.87359      0.16713      0
C37      C     0.96749      0.73521      0.16613      0
C38      C     0.96523      0.77244      0.18224      0
C39      C     0.96564      0.76882      0.21396      0
C40      C     0.46507      0.88626      0.01154      0
C41      C     0.51384      0.9116       0.02715      0
C42      C     0.46949      0.88875      0.04327      0
C43      C     0.65296      0.95906      0.04226      0
C44      C     0.6104       0.94861      0.05837      0
C45      C     0.65714      0.95988      0.07398      0
C46      C     0.61471      0.94984      0.09009      0
C47      C     0.78163      0.96397      0.08909      0
C48      C     0.745        0.96731      0.1052       0
C49      C     0.78516      0.9634       0.12081      0
C50      C     0.74877      0.96717      0.13692      0
C51      C     0.8829       0.92373      0.13591      0
C52      C     0.85576      0.94054      0.15203      0
C53      C     0.88543      0.92184      0.16764      0
C54      C     0.85862      0.93904      0.18375      0
C55      C     0.94691      0.84227      0.18274      0
C56      C     0.9319       0.8709       0.19886      0
C57      C     0.94819      0.83923      0.21446      0
C58      C     0.93358      0.86819      0.23058      0
C59      C     0.96602      0.76518      0.24568      0
C60      C     0.96635      0.76151      0.27741      0
C61      C     0.20869      0.67099      0.01305      0
C62      C     0.37345      0.82647      0.01205      0
C63      C     0.33137      0.79329      0.02816      0
C64      C     0.37773      0.82963      0.04377      0
C65      C     0.33552      0.79673      0.05988      0
C66      C     0.51827      0.91369      0.05888      0
C67      C     0.47392      0.89119      0.07499      0
C68      C     0.52271      0.91574      0.0906       0
C69      C     0.47835      0.8936       0.10671      0
C70      C     0.66132      0.96065      0.1057       0
C71      C     0.61901      0.95103      0.12182      0
C72      C     0.66547      0.96139      0.13743      0
C73      C     0.62329      0.95218      0.15354      0
C74      C     0.78866      0.9628       0.15253      0
C75      C     0.75251      0.96698      0.16864      0
C76      C     0.79214      0.96215      0.18425      0
C77      C     0.75624      0.96675      0.20037      0
C78      C     0.88792      0.91991      0.19936      0
C79      C     0.86145      0.93749      0.21547      0
C80      C     0.89038      0.91794      0.23108      0
C81      C     0.86425      0.93591      0.24719      0
C82      C     0.94944      0.83616      0.24619      0
C83      C     0.93522      0.86544      0.2623       0
C84      C     0.95064      0.83306      0.27791      0
C85      C     0.93682      0.86265      0.29402      0
C86      C     0.96664      0.75782      0.30913      0
C87      C     0.96689      0.75411      0.34085      0
C88      C     0.14206      0.58146      0.01356      0
C89      C     0.11517      0.53746      0.02967      0
C90      C     0.24838      0.71541      0.02866      0
C91      C     0.21217      0.67511      0.04478      0
C92      C     0.25213      0.71933      0.06039      0
C93      C     0.21568      0.67922      0.0765       0
C94      C     0.38202      0.83277      0.07549      0
C95      C     0.33968      0.80015      0.0916       0
C96      C     0.38632      0.83587      0.10721      0
C97      C     0.34385      0.80354      0.12333      0
C98      C     0.52714      0.91775      0.12232      0
C99      C     0.48278      0.89598      0.13843      0
C100     C     0.53156      0.91972      0.15404      0
C101     C     0.48722      0.89832      0.17015      0
C102     C     0.66962      0.96208      0.16915      0
C103     C     0.62757      0.95328      0.18526      0
C104     C     0.67374      0.96274      0.20087      0
C105     C     0.63183      0.95435      0.21698      0
C106     C     0.79559      0.96146      0.21598      0
C107     C     0.75994      0.96648      0.23209      0
C108     C     0.79901      0.96073      0.2477       0
C109     C     0.76361      0.96616      0.26381      0
C110     C     0.8928       0.91593      0.2628       0
C111     C     0.86701      0.93429      0.27892      0
C112     C     0.89519      0.91389      0.29453      0
C113     C     0.86975      0.93262      0.31064      0
C114     C     0.9518       0.82993      0.30963      0
C115     C     0.93838      0.85984      0.32574      0
C116     C     0.95292      0.82677      0.34135      0
C117     C     0.9399       0.85699      0.35747      0
C118     C     0.96709      0.75037      0.37257      0
C119     C     0.96725      0.74662      0.40429      0
C120     C     0.0534       0.39639      0.01457      0
C121     C     0.07023      0.44446      0.03017      0
C122     C     0.05473      0.40072      0.04629      0
C123     C     0.14493      0.58582      0.04528      0
C124     C     0.11771      0.54189      0.06139      0
C125     C     0.14783      0.59018      0.077        0
C126     C     0.12028      0.5463       0.09312      0
C127     C     0.2559       0.72324      0.09211      0
C128     C     0.21922      0.68331      0.10822      0
C129     C     0.2597       0.72713      0.12383      0
C130     C     0.22278      0.68738      0.13994      0
C131     C     0.39063      0.83894      0.13894      0
C132     C     0.34804      0.8069       0.15505      0
C133     C     0.39494      0.84198      0.17066      0
C134     C     0.35225      0.81023      0.18677      0
C135     C     0.53599      0.92166      0.18576      0
C136     C     0.49166      0.90063      0.20188      0
C137     C     0.54041      0.92355      0.21749      0
C138     C     0.49609      0.90289      0.2336       0
C139     C     0.67785      0.96335      0.23259      0
C140     C     0.63608      0.95537      0.2487       0
C141     C     0.68195      0.96392      0.26431      0
C142     C     0.64032      0.95635      0.28043      0
C143     C     0.80241      0.95995      0.27942      0
C144     C     0.76726      0.96581      0.29553      0
C145     C     0.80578      0.95914      0.31114      0
C146     C     0.77089      0.96541      0.32725      0
C147     C     0.89755      0.9118       0.32625      0
C148     C     0.87244      0.93092      0.34236      0
C149     C     0.89986      0.90968      0.35797      0
C150     C     0.87511      0.92918      0.37408      0
C151     C     0.954        0.82359      0.37308      0
C152     C     0.94138      0.85411      0.38919      0
C153     C     0.95503      0.82037      0.4048       0
C154     C     0.94283      0.85119      0.42091      0
C155     C     0.96738      0.74284      0.43602      0
C156     C     0.96746      0.73903      0.46774      0
C157     C     0.05309      0.15773      0.01608      0
C158     C     0.03488      0.30818      0.01507      0
C159     C     0.03251      0.26864      0.03118      0
C160     C     0.03534      0.31223      0.04679      0
C161     C     0.03256      0.2725       0.0629       0
C162     C     0.072        0.44887      0.0619       0
C163     C     0.0561       0.40506      0.07801      0
C164     C     0.0738       0.45328      0.09362      0
C165     C     0.05751      0.40941      0.10973      0
C166     C     0.15077      0.59453      0.10872      0
C167     C     0.12288      0.55072      0.12484      0
C168     C     0.15373      0.59887      0.14045      0
C169     C     0.12552      0.55512      0.15656      0
C170     C     0.26351      0.731        0.15555      0
C171     C     0.22636      0.69144      0.17167      0
C172     C     0.26735      0.73485      0.18727      0
C173     C     0.22997      0.69548      0.20339      0
C174     C     0.39927      0.84499      0.20238      0
C175     C     0.35646      0.81354      0.21849      0
C176     C     0.40361      0.84797      0.2341       0
C177     C     0.36069      0.81681      0.25022      0
C178     C     0.54483      0.92541      0.24921      0
C179     C     0.50053      0.90513      0.26532      0
C180     C     0.54925      0.92723      0.28093      0
C181     C     0.50497      0.90732      0.29704      0
C182     C     0.68603      0.96444      0.29604      0
C183     C     0.64455      0.9573       0.31215      0
C184     C     0.69009      0.96493      0.32776      0
C185     C     0.64876      0.9582       0.34387      0
C186     C     0.80912      0.95828      0.34286      0
C187     C     0.7745       0.96497      0.35898      0
C188     C     0.81244      0.95738      0.37459      0
C189     C     0.77808      0.96449      0.3907       0
C190     C     0.90214      0.90753      0.38969      0
C191     C     0.87774      0.9274       0.4058       0
C192     C     0.90439      0.90534      0.42141      0
C193     C     0.88034      0.92559      0.43753      0
C194     C     0.95603      0.81712      0.43652      0
C195     C     0.94423      0.84825      0.45263      0
C196     C     0.95699      0.81385      0.46824      0
C197     C     0.94559      0.84527      0.48435      0
C198     C     0.96749      0.73521      0.49946      0
C199     C     0.11457      0.07816      0.00097      0
C200     C     0.0891       0.10146      0.01658      0
C201     C     0.11208      0.08009      0.03269      0
C202     C     0.04122      0.19278      0.03169      0
C203     C     0.05181      0.16077      0.0478       0
C204     C     0.04039      0.19614      0.06341      0
C205     C     0.05056      0.16384      0.07952      0
C206     C     0.03585      0.3163       0.07851      0
C207     C     0.03265      0.27639      0.09463      0
C208     C     0.03641      0.32039      0.11024      0
C209     C     0.03278      0.2803       0.12635      0
C210     C     0.07565      0.4577       0.12534      0
C211     C     0.05897      0.41376      0.14145      0
C212     C     0.07753      0.46212      0.15706      0
C213     C     0.06046      0.41813      0.17318      0
C214     C     0.15673      0.6032       0.17217      0
C215     C     0.1282       0.55953      0.18828      0
C216     C     0.15976      0.60753      0.20389      0
C217     C     0.1309       0.56393      0.22         0
C218     C     0.27121      0.73867      0.219        0
C219     C     0.2336       0.6995       0.23511      0
C220     C     0.27509      0.74248      0.25072      0
C221     C     0.23726      0.70351      0.26683      0
C222     C     0.40796      0.85092      0.26582      0
C223     C     0.36493      0.82006      0.28194      0
C224     C     0.41231      0.85383      0.29755      0
C225     C     0.36919      0.82328      0.31366      0
C226     C     0.55366      0.92902      0.31265      0
C227     C     0.5094       0.90948      0.32876      0
C228     C     0.55806      0.93076      0.34437      0
C229     C     0.51384      0.9116       0.36049      0
C230     C     0.69414      0.96537      0.35948      0
C231     C     0.65296      0.95906      0.37559      0
C232     C     0.69816      0.96577      0.3912       0
C233     C     0.65714      0.95988      0.40731      0
C234     C     0.81573      0.95645      0.40631      0
C235     C     0.78163      0.96397      0.42242      0
C236     C     0.81898      0.95547      0.43803      0
C237     C     0.78516      0.9634       0.45414      0
C238     C     0.9066       0.90311      0.45314      0
C239     C     0.8829       0.92373      0.46925      0
C240     C     0.90877      0.90084      0.48486      0
C241     C     0.88543      0.92184      0.50097      0
C242     C     0.9579       0.81055      0.49996      0
C243     C     0.94691      0.84227      0.51608      0
C244     C     0.95878      0.80722      0.53169      0
C245     C     0.94819      0.83923      0.5478       0
C246     C     0.33038      0.03792      0.00248      0
C247     C     0.17459      0.04662      0.00147      0
C248     C     0.20786      0.03785      0.01759      0
C249     C     0.17142      0.04772      0.0332       0
C250     C     0.20441      0.03854      0.04931      0
C251     C     0.087        0.1038       0.0483       0
C252     C     0.10962      0.08206      0.06441      0
C253     C     0.08494      0.10617      0.08002      0
C254     C     0.1072       0.08407      0.09614      0
C255     C     0.0396       0.19953      0.09513      0
C256     C     0.04936      0.16694      0.11124      0
C257     C     0.03885      0.20294      0.12685      0
C258     C     0.0482       0.17007      0.14296      0
C259     C     0.037        0.3245       0.14196      0
C260     C     0.03295      0.28422      0.15807      0
C261     C     0.03763      0.32862      0.17368      0
C262     C     0.03317      0.28817      0.18979      0
C263     C     0.07945      0.46654      0.18879      0
C264     C     0.06199      0.4225       0.2049       0
C265     C     0.0814       0.47097      0.22051      0
C266     C     0.06356      0.42688      0.23662      0
C267     C     0.16281      0.61184      0.23561      0
C268     C     0.13364      0.56832      0.25173      0
C269     C     0.1659       0.61614      0.26733      0
C270     C     0.13642      0.57271      0.28345      0
C271     C     0.27899      0.74626      0.28244      0
C272     C     0.24094      0.70749      0.29855      0
C273     C     0.28291      0.75002      0.31416      0
C274     C     0.24465      0.71146      0.33028      0
C275     C     0.41667      0.85672      0.32927      0
C276     C     0.37345      0.82647      0.34538      0
C277     C     0.42104      0.85957      0.36099      0
C278     C     0.37773      0.82963      0.3771       0
C279     C     0.56246      0.93246      0.3761       0
C280     C     0.51827      0.91369      0.39221      0
C281     C     0.56686      0.93413      0.40782      0
C282     C     0.52271      0.91574      0.42393      0
C283     C     0.70217      0.96613      0.42292      0
C284     C     0.66132      0.96065      0.43904      0
C285     C     0.70616      0.96645      0.45465      0
C286     C     0.66547      0.96139      0.47076      0
C287     C     0.82221      0.95445      0.46975      0
C288     C     0.78866      0.9628       0.48586      0
C289     C     0.82541      0.95338      0.50147      0
C290     C     0.79214      0.96215      0.51759      0
C291     C     0.9109       0.89854      0.51658      0
C292     C     0.88792      0.91991      0.53269      0
C293     C     0.913        0.8962       0.5483       0
C294     C     0.89038      0.91794      0.56441      0
C295     C     0.95961      0.80386      0.56341      0
C296     C     0.94944      0.83616      0.57952      0
C297     C     0.9604       0.80047      0.59513      0
C298     C     0.95064      0.83306      0.61124      0
C299     C     0.42         0.06111      0.00298      0
C300     C     0.46401      0.07834      0.0191       0
C301     C     0.28591      0.03304      0.01809      0
C302     C     0.32626      0.03726      0.0342       0
C303     C     0.28197      0.03285      0.04981      0
C304     C     0.32215      0.03665      0.06593      0
C305     C     0.16827      0.04886      0.06492      0
C306     C     0.20099      0.03927      0.08103      0
C307     C     0.16516      0.05004      0.09664      0
C308     C     0.19759      0.04005      0.11275      0
C309     C     0.08292      0.10858      0.11175      0
C310     C     0.10481      0.08611      0.12786      0
C311     C     0.08093      0.11102      0.14347      0
C312     C     0.10245      0.0882       0.15958      0
C313     C     0.03814      0.20638      0.15857      0
C314     C     0.04708      0.17323      0.17469      0
C315     C     0.03748      0.20985      0.1903       0
C316     C     0.046        0.17641      0.20641      0
C317     C     0.03831      0.33275      0.2054       0
C318     C     0.03343      0.29213      0.22151      0
C319     C     0.03903      0.3369       0.23712      0
C320     C     0.03373      0.29612      0.25324      0
C321     C     0.0834       0.4754       0.25223      0
C322     C     0.06517      0.43126      0.26834      0
C323     C     0.08543      0.47983      0.28395      0
C324     C     0.06682      0.43566      0.30006      0
C325     C     0.16902      0.62044      0.29906      0
C326     C     0.13922      0.57709      0.31517      0
C327     C     0.17217      0.62472      0.33078      0
C328     C     0.14206      0.58146      0.34689      0
C329     C     0.28685      0.75376      0.34588      0
C330     C     0.24838      0.71541      0.362        0
C331     C     0.29081      0.75747      0.37761      0
C332     C     0.25213      0.71933      0.39372      0
C333     C     0.42542      0.86239      0.39271      0
C334     C     0.38202      0.83277      0.40883      0
C335     C     0.4298       0.86517      0.42443      0
C336     C     0.38632      0.83587      0.44055      0
C337     C     0.57124      0.93576      0.43954      0
C338     C     0.52714      0.91775      0.45565      0
C339     C     0.57563      0.93734      0.47126      0
C340     C     0.53156      0.91972      0.48738      0
C341     C     0.71014      0.96673      0.48637      0
C342     C     0.66962      0.96208      0.50248      0
C343     C     0.71409      0.96696      0.51809      0
C344     C     0.67374      0.96274      0.5342       0
C345     C     0.82858      0.95228      0.5332       0
C346     C     0.79559      0.96146      0.54931      0
C347     C     0.83173      0.95114      0.56492      0
C348     C     0.79901      0.96073      0.58103      0
C349     C     0.91506      0.89383      0.58002      0
C350     C     0.8928       0.91593      0.59614      0
C351     C     0.91708      0.89142      0.61175      0
C352     C     0.89519      0.91389      0.62786      0
C353     C     0.96115      0.79706      0.62685      0
C354     C     0.9518       0.82993      0.64296      0
C355     C     0.96186      0.79362      0.65857      0
C356     C     0.95292      0.82677      0.67469      0
C357     C     0.60506      0.15802      0.00399      0
C358     C     0.55701      0.12666      0.0196       0
C359     C     0.60073      0.15501      0.03571      0
C360     C     0.41563      0.0596       0.03471      0
C361     C     0.45959      0.07645      0.05082      0
C362     C     0.41127      0.05813      0.06643      0
C363     C     0.45517      0.07459      0.08254      0
C364     C     0.27806      0.0327       0.08153      0
C365     C     0.31805      0.03608      0.09765      0
C366     C     0.27416      0.03259      0.11326      0
C367     C     0.31397      0.03556      0.12937      0
C368     C     0.16208      0.05127      0.12836      0
C369     C     0.19422      0.04086      0.14447      0
C370     C     0.15903      0.05253      0.16008      0
C371     C     0.19088      0.04172      0.1762       0
C372     C     0.07898      0.1135       0.17519      0
C373     C     0.10014      0.09032      0.1913       0
C374     C     0.07707      0.11601      0.20691      0
C375     C     0.09786      0.09247      0.22302      0
C376     C     0.03685      0.21334      0.22202      0
C377     C     0.04497      0.17963      0.23813      0
C378     C     0.03627      0.21686      0.25374      0
C379     C     0.04397      0.18288      0.26985      0
C380     C     0.03979      0.34107      0.26885      0
C381     C     0.03407      0.30012      0.28496      0
C382     C     0.04059      0.34525      0.30057      0
C383     C     0.03445      0.30414      0.31668      0
C384     C     0.0875       0.48426      0.31567      0
C385     C     0.06851      0.44005      0.33179      0
C386     C     0.0896       0.4887       0.3474       0
C387     C     0.07023      0.44446      0.36351      0
C388     C     0.17535      0.62899      0.3625       0
C389     C     0.14493      0.58582      0.37861      0
C390     C     0.17855      0.63325      0.39422      0
C391     C     0.14783      0.59018      0.41034      0
C392     C     0.29479      0.76116      0.40933      0
C393     C     0.2559       0.72324      0.42544      0
C394     C     0.29878      0.76483      0.44105      0
C395     C     0.2597       0.72713      0.45716      0
C396     C     0.43419      0.86793      0.45616      0
C397     C     0.39063      0.83894      0.47227      0
C398     C     0.43859      0.87065      0.48788      0
C399     C     0.39494      0.84198      0.50399      0
C400     C     0.58         0.93889      0.50298      0
C401     C     0.53599      0.92166      0.5191       0
C402     C     0.58437      0.9404       0.53471      0
C403     C     0.54041      0.92355      0.55082      0
C404     C     0.71803      0.96715      0.54981      0
C405     C     0.67785      0.96335      0.56593      0
C406     C     0.72194      0.9673       0.58153      0
C407     C     0.68195      0.96392      0.59765      0
C408     C     0.83484      0.94996      0.59664      0
C409     C     0.80241      0.95995      0.61275      0
C410     C     0.83792      0.94873      0.62836      0
C411     C     0.80578      0.95914      0.64447      0
C412     C     0.91907      0.88898      0.64347      0
C413     C     0.89755      0.9118       0.65958      0
C414     C     0.92102      0.8865       0.67519      0
C415     C     0.89986      0.90968      0.6913       0
C416     C     0.96252      0.79015      0.6903       0
C417     C     0.954        0.82359      0.70641      0
C418     C     0.96315      0.78666      0.72202      0
C419     C     0.95503      0.82037      0.73813      0
C420     C     0.84327      0.3968       0.0055       0
C421     C     0.69317      0.2279       0.0045       0
C422     C     0.73265      0.26515      0.02061      0
C423     C     0.68912      0.22431      0.03622      0
C424     C     0.72879      0.26133      0.05233      0
C425     C     0.5526       0.12401      0.05132      0
C426     C     0.59639      0.15203      0.06744      0
C427     C     0.54819      0.12139      0.08304      0
C428     C     0.59204      0.14908      0.09916      0
C429     C     0.40692      0.0567       0.09815      0
C430     C     0.45075      0.07277      0.11426      0
C431     C     0.40257      0.05531      0.12987      0
C432     C     0.44634      0.07098      0.14599      0
C433     C     0.27029      0.03253      0.14498      0
C434     C     0.30991      0.03507      0.16109      0
C435     C     0.26643      0.0325       0.1767       0
C436     C     0.30586      0.03463      0.19281      0
C437     C     0.15601      0.05384      0.19181      0
C438     C     0.18756      0.04262      0.20792      0
C439     C     0.15302      0.05518      0.22353      0
C440     C     0.18427      0.04355      0.23964      0
C441     C     0.0752       0.11856      0.23863      0
C442     C     0.09561      0.09466      0.25475      0
C443     C     0.07337      0.12114      0.27036      0
C444     C     0.0934       0.09689      0.28647      0
C445     C     0.03573      0.2204       0.28546      0
C446     C     0.04301      0.18615      0.30157      0
C447     C     0.03523      0.22397      0.31718      0
C448     C     0.0421       0.18945      0.3333       0
C449     C     0.04143      0.34944      0.33229      0
C450     C     0.03488      0.30818      0.3484       0
C451     C     0.04231      0.35365      0.36401      0
C452     C     0.03534      0.31223      0.38012      0
C453     C     0.09175      0.49313      0.37912      0
C454     C     0.072        0.44887      0.39523      0
C455     C     0.09393      0.49757      0.41084      0
C456     C     0.0738       0.45328      0.42695      0
C457     C     0.18179      0.63749      0.42595      0
C458     C     0.15077      0.59453      0.44206      0
C459     C     0.18506      0.64173      0.45767      0
C460     C     0.15373      0.59887      0.47378      0
C461     C     0.3028       0.76848      0.47277      0
C462     C     0.26351      0.731        0.48889      0
C463     C     0.30683      0.7721       0.5045       0
C464     C     0.26735      0.73485      0.52061      0
C465     C     0.44299      0.87334      0.5196       0
C466     C     0.39927      0.84499      0.53571      0
C467     C     0.4474       0.87599      0.55132      0
C468     C     0.40361      0.84797      0.56744      0
C469     C     0.58873      0.94187      0.56643      0
C470     C     0.54483      0.92541      0.58254      0
C471     C     0.59308      0.9433       0.59815      0
C472     C     0.54925      0.92723      0.61426      0
C473     C     0.72584      0.96741      0.61326      0
C474     C     0.68603      0.96444      0.62937      0
C475     C     0.72971      0.96747      0.64498      0
C476     C     0.69009      0.96493      0.66109      0
C477     C     0.84097      0.94747      0.66008      0
C478     C     0.80912      0.95828      0.6762       0
C479     C     0.84399      0.94616      0.69181      0
C480     C     0.81244      0.95738      0.70792      0
C481     C     0.92293      0.88399      0.70691      0
C482     C     0.90214      0.90753      0.72302      0
C483     C     0.9248       0.88144      0.73863      0
C484     C     0.90439      0.90534      0.75475      0
C485     C     0.96373      0.78314      0.75374      0
C486     C     0.95603      0.81712      0.76985      0
C487     C     0.96427      0.7796       0.78546      0
C488     C     0.95699      0.81385      0.80157      0
C489     C     0.89931      0.48912      0.00601      0
C490     C     0.92055      0.53346      0.02212      0
C491     C     0.80833      0.34984      0.02111      0
C492     C     0.84024      0.39247      0.03722      0
C493     C     0.80498      0.34564      0.05283      0
C494     C     0.83719      0.38816      0.06895      0
C495     C     0.68506      0.22074      0.06794      0
C496     C     0.72491      0.25752      0.08405      0
C497     C     0.68097      0.21719      0.09966      0
C498     C     0.72101      0.25374      0.11577      0
C499     C     0.54378      0.1188       0.11477      0
C500     C     0.58769      0.14617      0.13088      0
C501     C     0.53936      0.11625      0.14649      0
C502     C     0.58333      0.14328      0.1626       0
C503     C     0.39824      0.05396      0.16159      0
C504     C     0.44194      0.06924      0.17771      0
C505     C     0.39391      0.05266      0.19332      0
C506     C     0.43754      0.06754      0.20943      0
C507     C     0.2626       0.03252      0.20842      0
C508     C     0.30184      0.03423      0.22454      0
C509     C     0.25879      0.03259      0.24014      0
C510     C     0.29783      0.03387      0.25626      0
C511     C     0.15006      0.05657      0.25525      0
C512     C     0.18102      0.04453      0.27136      0
C513     C     0.14714      0.05799      0.28697      0
C514     C     0.17779      0.04555      0.30309      0
C515     C     0.07157      0.12376      0.30208      0
C516     C     0.09123      0.09916      0.31819      0
C517     C     0.06982      0.12641      0.3338       0
C518     C     0.0891       0.10146      0.34991      0
C519     C     0.03477      0.22756      0.34891      0
C520     C     0.04122      0.19278      0.36502      0
C521     C     0.03436      0.23118      0.38063      0
C522     C     0.04039      0.19614      0.39674      0
C523     C     0.04324      0.35787      0.39573      0
C524     C     0.03585      0.3163       0.41185      0
C525     C     0.0442       0.3621       0.42746      0
C526     C     0.03641      0.32039      0.44357      0
C527     C     0.09615      0.50201      0.44256      0
C528     C     0.07565      0.4577       0.45867      0
C529     C     0.0984       0.50645      0.47428      0
C530     C     0.07753      0.46212      0.4904       0
C531     C     0.18835      0.64595      0.48939      0
C532     C     0.15673      0.6032       0.5055       0
C533     C     0.19167      0.65016      0.52111      0
C534     C     0.15976      0.60753      0.53722      0
C535     C     0.31088      0.77569      0.53622      0
C536     C     0.27121      0.73867      0.55233      0
C537     C     0.31494      0.77926      0.56794      0
C538     C     0.27509      0.74248      0.58405      0
C539     C     0.45181      0.87861      0.58304      0
C540     C     0.40796      0.85092      0.59916      0
C541     C     0.45622      0.8812       0.61477      0
C542     C     0.41231      0.85383      0.63088      0
C543     C     0.59743      0.94469      0.62987      0
C544     C     0.55366      0.92902      0.64599      0
C545     C     0.60176      0.94604      0.66159      0
C546     C     0.55806      0.93076      0.67771      0
C547     C     0.73357      0.9675       0.6767       0
C548     C     0.69414      0.96537      0.69281      0
C549     C     0.7374       0.96748      0.70842      0
C550     C     0.69816      0.96577      0.72454      0
C551     C     0.84698      0.94482      0.72353      0
C552     C     0.81573      0.95645      0.73964      0
C553     C     0.84994      0.94343      0.75525      0
C554     C     0.81898      0.95547      0.77136      0
C555     C     0.92663      0.87886      0.77036      0
C556     C     0.9066       0.90311      0.78647      0
C557     C     0.92843      0.87624      0.80208      0
C558     C     0.90877      0.90084      0.81819      0
C559     C     0.96477      0.77603      0.81718      0
C560     C     0.9579       0.81055      0.8333       0
C561     C     0.96523      0.77244      0.84891      0
C562     C     0.95878      0.80722      0.86502      0
C563     C     0.96237      0.67138      0.00701      0
C564     C     0.95265      0.62512      0.02262      0
C565     C     0.96169      0.66725      0.03873      0
C566     C     0.89699      0.48468      0.03773      0
C567     C     0.9186       0.52903      0.05384      0
C568     C     0.89463      0.48025      0.06945      0
C569     C     0.9166       0.5246       0.08556      0
C570     C     0.8016       0.34146      0.08456      0
C571     C     0.8341       0.38386      0.10067      0
C572     C     0.7982       0.3373       0.11628      0
C573     C     0.83098      0.37956      0.13239      0
C574     C     0.67687      0.21367      0.13138      0
C575     C     0.71709      0.24998      0.1475       0
C576     C     0.67276      0.21018      0.16311      0
C577     C     0.71315      0.24624      0.17922      0
C578     C     0.53493      0.11374      0.17821      0
C579     C     0.57896      0.14043      0.19432      0
C580     C     0.53051      0.11125      0.20993      0
C581     C     0.57458      0.13761      0.22605      0
C582     C     0.3896       0.05139      0.22504      0
C583     C     0.43314      0.06587      0.24115      0
C584     C     0.38529      0.05016      0.25676      0
C585     C     0.42876      0.06424      0.27287      0
C586     C     0.255        0.03269      0.27187      0
C587     C     0.29384      0.03355      0.28798      0
C588     C     0.25123      0.03283      0.30359      0
C589     C     0.28986      0.03327      0.3197       0
C590     C     0.14424      0.05946      0.31869      0
C591     C     0.17459      0.04662      0.33481      0
C592     C     0.14138      0.06096      0.35042      0
C593     C     0.17142      0.04772      0.36653      0
C594     C     0.0681       0.1291       0.36552      0
C595     C     0.087        0.1038       0.38163      0
C596     C     0.06642      0.13181      0.39724      0
C597     C     0.08494      0.10617      0.41336      0
C598     C     0.03398      0.23482      0.41235      0
C599     C     0.0396       0.19953      0.42846      0
C600     C     0.03365      0.23849      0.44407      0
C601     C     0.03885      0.20294      0.46018      0
C602     C     0.04521      0.36635      0.45918      0
C603     C     0.037        0.3245       0.47529      0
C604     C     0.04626      0.37061      0.4909       0
C605     C     0.03763      0.32862      0.50701      0
C606     C     0.10069      0.51088      0.50601      0
C607     C     0.07945      0.46654      0.52212      0
C608     C     0.10301      0.51532      0.53773      0
C609     C     0.0814       0.47097      0.55384      0
C610     C     0.19502      0.65436      0.55283      0
C611     C     0.16281      0.61184      0.56895      0
C612     C     0.1984       0.65854      0.58456      0
C613     C     0.1659       0.61614      0.60067      0
C614     C     0.31903      0.78281      0.59966      0
C615     C     0.27899      0.74626      0.61577      0
C616     C     0.32313      0.78633      0.63138      0
C617     C     0.28291      0.75002      0.6475       0
C618     C     0.46064      0.88375      0.64649      0
C619     C     0.41667      0.85672      0.6626       0
C620     C     0.46507      0.88626      0.67821      0
C621     C     0.42104      0.85957      0.69432      0
C622     C     0.60609      0.94734      0.69332      0
C623     C     0.56246      0.93246      0.70943      0
C624     C     0.6104       0.94861      0.72504      0
C625     C     0.56686      0.93413      0.74115      0
C626     C     0.74121      0.96741      0.74014      0
C627     C     0.70217      0.96613      0.75626      0
C628     C     0.745        0.96731      0.77187      0
C629     C     0.70616      0.96645      0.78798      0
C630     C     0.85286      0.94201      0.78697      0
C631     C     0.82221      0.95445      0.80309      0
C632     C     0.85576      0.94054      0.81869      0
C633     C     0.82541      0.95338      0.83481      0
C634     C     0.93018      0.87359      0.8338       0
C635     C     0.9109       0.89854      0.84991      0
C636     C     0.9319       0.8709       0.86552      0
C637     C     0.913        0.8962       0.88163      0
C638     C     0.96564      0.76882      0.88063      0
C639     C     0.95961      0.80386      0.89674      0
C640     C     0.96602      0.76518      0.91235      0
C641     C     0.9604       0.80047      0.92846      0
C642     C     0.95152      0.62084      0.05434      0
C643     C     0.96097      0.6631       0.07046      0
C644     C     0.95035      0.61655      0.08607      0
C645     C     0.96021      0.65893      0.10218      0
C646     C     0.89223      0.47582      0.10117      0
C647     C     0.91457      0.52017      0.11728      0
C648     C     0.8898       0.47139      0.13289      0
C649     C     0.9125       0.51574      0.14901      0
C650     C     0.79477      0.33314      0.148        0
C651     C     0.82783      0.37528      0.16411      0
C652     C     0.79131      0.32901      0.17972      0
C653     C     0.82465      0.37101      0.19583      0
C654     C     0.66863      0.20671      0.19483      0
C655     C     0.70919      0.24253      0.21094      0
C656     C     0.66448      0.20327      0.22655      0
C657     C     0.70521      0.23884      0.24266      0
C658     C     0.52608      0.10881      0.24166      0
C659     C     0.5702       0.13483      0.25777      0
C660     C     0.52165      0.1064       0.27338      0
C661     C     0.56581      0.13207      0.28949      0
C662     C     0.38099      0.04897      0.28848      0
C663     C     0.42437      0.06266      0.3046       0
C664     C     0.37671      0.04782      0.3202       0
C665     C     0.42         0.06111      0.33632      0
C666     C     0.24749      0.03302      0.33531      0
C667     C     0.28591      0.03304      0.35142      0
C668     C     0.24376      0.03325      0.36703      0
C669     C     0.28197      0.03285      0.38315      0
C670     C     0.13855      0.06251      0.38214      0
C671     C     0.16827      0.04886      0.39825      0
C672     C     0.13575      0.06409      0.41386      0
C673     C     0.16516      0.05004      0.42997      0
C674     C     0.06478      0.13456      0.42897      0
C675     C     0.08292      0.10858      0.44508      0
C676     C     0.06318      0.13735      0.46069      0
C677     C     0.08093      0.11102      0.4768       0
C678     C     0.03336      0.24218      0.47579      0
C679     C     0.03814      0.20638      0.49191      0
C680     C     0.03311      0.24589      0.50752      0
C681     C     0.03748      0.20985      0.52363      0
C682     C     0.04735      0.37488      0.52262      0
C683     C     0.03831      0.33275      0.53873      0
C684     C     0.04848      0.37916      0.55434      0
C685     C     0.03903      0.3369       0.57046      0
C686     C     0.10537      0.51975      0.56945      0
C687     C     0.0834       0.4754       0.58556      0
C688     C     0.10777      0.52418      0.60117      0
C689     C     0.08543      0.47983      0.61728      0
C690     C     0.2018       0.6627       0.61628      0
C691     C     0.16902      0.62044      0.63239      0
C692     C     0.20523      0.66686      0.648        0
C693     C     0.17217      0.62472      0.66411      0
C694     C     0.32724      0.78982      0.66311      0
C695     C     0.28685      0.75376      0.67922      0
C696     C     0.33137      0.79329      0.69483      0
C697     C     0.29081      0.75747      0.71094      0
C698     C     0.46949      0.88875      0.70993      0
C699     C     0.42542      0.86239      0.72605      0
C700     C     0.47392      0.89119      0.74166      0
C701     C     0.4298       0.86517      0.75777      0
C702     C     0.61471      0.94984      0.75676      0
C703     C     0.57124      0.93576      0.77287      0
C704     C     0.61901      0.95103      0.78848      0
C705     C     0.57563      0.93734      0.8046       0
C706     C     0.74877      0.96717      0.80359      0
C707     C     0.71014      0.96673      0.8197       0
C708     C     0.75251      0.96698      0.83531      0
C709     C     0.71409      0.96696      0.85142      0
C710     C     0.85862      0.93904      0.85042      0
C711     C     0.82858      0.95228      0.86653      0
C712     C     0.86145      0.93749      0.88214      0
C713     C     0.83173      0.95114      0.89825      0
C714     C     0.93358      0.86819      0.89724      0
C715     C     0.91506      0.89383      0.91336      0
C716     C     0.93522      0.86544      0.92897      0
C717     C     0.91708      0.89142      0.94508      0
C718     C     0.96635      0.76151      0.94407      0
C719     C     0.96115      0.79706      0.96018      0
C720     C     0.96664      0.75782      0.97579      0
C721     C     0.96186      0.79362      0.99191      0
C722     C     0.94914      0.61225      0.11779      0
C723     C     0.95941      0.65475      0.1339       0
C724     C     0.94789      0.60794      0.14951      0
C725     C     0.95857      0.65056      0.16562      0
C726     C     0.88733      0.46696      0.16462      0
C727     C     0.9104       0.5113       0.18073      0
C728     C     0.88483      0.46254      0.19634      0
C729     C     0.90825      0.50687      0.21245      0
C730     C     0.78783      0.32489      0.21144      0
C731     C     0.82145      0.36675      0.22756      0
C732     C     0.78432      0.32078      0.24317      0
C733     C     0.81821      0.36251      0.25928      0
C734     C     0.66032      0.19985      0.25827      0
C735     C     0.70122      0.23517      0.27438      0
C736     C     0.65615      0.19646      0.28999      0
C737     C     0.6972       0.23152      0.30611      0
C738     C     0.51722      0.10402      0.3051       0
C739     C     0.56141      0.12935      0.32121      0
C740     C     0.51278      0.10168      0.33682      0
C741     C     0.55701      0.12666      0.35293      0
C742     C     0.37243      0.04672      0.35193      0
C743     C     0.41563      0.0596       0.36804      0
C744     C     0.36817      0.04565      0.38365      0
C745     C     0.41127      0.05813      0.39976      0
C746     C     0.24006      0.03352      0.39875      0
C747     C     0.27806      0.0327       0.41487      0
C748     C     0.23639      0.03384      0.43048      0
C749     C     0.27416      0.03259      0.44659      0
C750     C     0.13299      0.06571      0.44558      0
C751     C     0.16208      0.05127      0.4617       0
C752     C     0.13025      0.06738      0.4773       0
C753     C     0.15903      0.05253      0.49342      0
C754     C     0.06162      0.14016      0.49241      0
C755     C     0.07898      0.1135       0.50852      0
C756     C     0.0601       0.14301      0.52413      0
C757     C     0.07707      0.11601      0.54025      0
C758     C     0.03291      0.24963      0.53924      0
C759     C     0.03685      0.21334      0.55535      0
C760     C     0.03275      0.25338      0.57096      0
C761     C     0.03627      0.21686      0.58707      0
C762     C     0.04965      0.38345      0.58607      0
C763     C     0.03979      0.34107      0.60218      0
C764     C     0.05086      0.38775      0.61779      0
C765     C     0.04059      0.34525      0.6339       0
C766     C     0.1102       0.52861      0.63289      0
C767     C     0.0875       0.48426      0.64901      0
C768     C     0.11267      0.53304      0.66462      0
C769     C     0.0896       0.4887       0.68073      0
C770     C     0.20869      0.67099      0.67972      0
C771     C     0.17535      0.62899      0.69583      0
C772     C     0.21217      0.67511      0.71144      0
C773     C     0.17855      0.63325      0.72756      0
C774     C     0.33552      0.79673      0.72655      0
C775     C     0.29479      0.76116      0.74266      0
C776     C     0.33968      0.80015      0.75827      0
C777     C     0.29878      0.76483      0.77438      0
C778     C     0.47835      0.8936       0.77338      0
C779     C     0.43419      0.86793      0.78949      0
C780     C     0.48278      0.89598      0.8051       0
C781     C     0.43859      0.87065      0.82121      0
C782     C     0.62329      0.95218      0.8202       0
C783     C     0.58         0.93889      0.83632      0
C784     C     0.62757      0.95328      0.85193      0
C785     C     0.58437      0.9404       0.86804      0
C786     C     0.75624      0.96675      0.86703      0
C787     C     0.71803      0.96715      0.88315      0
C788     C     0.75994      0.96648      0.89875      0
C789     C     0.72194      0.9673       0.91487      0
C790     C     0.86425      0.93591      0.91386      0
C791     C     0.83484      0.94996      0.92997      0
C792     C     0.86701      0.93429      0.94558      0
C793     C     0.83792      0.94873      0.9617       0
C794     C     0.93682      0.86265      0.96069      0
C795     C     0.91907      0.88898      0.9768       0
C796     C     0.93838      0.85984      0.99241      0
C797     C     0.9466       0.60361      0.18123      0
C798     C     0.95769      0.64635      0.19734      0
C799     C     0.94527      0.59928      0.21295      0
C800     C     0.95676      0.64213      0.22907      0
C801     C     0.88229      0.45811      0.22806      0
C802     C     0.90607      0.50243      0.24417      0
C803     C     0.87972      0.4537       0.25978      0
C804     C     0.90385      0.49799      0.27589      0
C805     C     0.78078      0.31669      0.27489      0
C806     C     0.81494      0.35827      0.291        0
C807     C     0.77722      0.31262      0.30661      0
C808     C     0.81165      0.35405      0.32272      0
C809     C     0.65196      0.1931       0.32172      0
C810     C     0.69317      0.2279       0.33783      0
C811     C     0.64775      0.18977      0.35344      0
C812     C     0.68912      0.22431      0.36955      0
C813     C     0.50834      0.09937      0.36854      0
C814     C     0.5526       0.12401      0.38466      0
C815     C     0.50391      0.09711      0.40027      0
C816     C     0.54819      0.12139      0.41638      0
C817     C     0.36392      0.04463      0.41537      0
C818     C     0.40692      0.0567       0.43148      0
C819     C     0.35968      0.04365      0.44709      0
C820     C     0.40257      0.05531      0.46321      0
C821     C     0.23274      0.03419      0.4622       0
C822     C     0.27029      0.03253      0.47831      0
C823     C     0.22911      0.03459      0.49392      0
C824     C     0.26643      0.0325       0.51003      0
C825     C     0.12756      0.06908      0.50903      0
C826     C     0.15601      0.05384      0.52514      0
C827     C     0.12489      0.07082      0.54075      0
C828     C     0.15302      0.05518      0.55686      0
C829     C     0.05862      0.14589      0.55585      0
C830     C     0.0752       0.11856      0.57197      0
C831     C     0.05717      0.14881      0.58758      0
C832     C     0.07337      0.12114      0.60369      0
C833     C     0.03262      0.25716      0.60268      0
C834     C     0.03573      0.2204       0.6188       0
C835     C     0.03254      0.26097      0.6344       0
C836     C     0.03523      0.22397      0.65052      0
C837     C     0.05211      0.39206      0.64951      0
C838     C     0.04143      0.34944      0.66562      0
C839     C     0.0534       0.39639      0.68123      0
C840     C     0.04231      0.35365      0.69734      0
C841     C     0.11517      0.53746      0.69634      0
C842     C     0.09175      0.49313      0.71245      0
C843     C     0.11771      0.54189      0.72806      0
C844     C     0.09393      0.49757      0.74417      0
C845     C     0.21568      0.67922      0.74317      0
C846     C     0.18179      0.63749      0.75928      0
C847     C     0.21922      0.68331      0.77489      0
C848     C     0.18506      0.64173      0.791        0
C849     C     0.34385      0.80354      0.78999      0
C850     C     0.3028       0.76848      0.80611      0
C851     C     0.34804      0.8069       0.82172      0
C852     C     0.30683      0.7721       0.83783      0
C853     C     0.48722      0.89832      0.83682      0
C854     C     0.44299      0.87334      0.85293      0
C855     C     0.49166      0.90063      0.86854      0
C856     C     0.4474       0.87599      0.88466      0
C857     C     0.63183      0.95435      0.88365      0
C858     C     0.58873      0.94187      0.89976      0
C859     C     0.63608      0.95537      0.91537      0
C860     C     0.59308      0.9433       0.93148      0
C861     C     0.76361      0.96616      0.93048      0
C862     C     0.72584      0.96741      0.94659      0
C863     C     0.76726      0.96581      0.9622       0
C864     C     0.72971      0.96747      0.97831      0
C865     C     0.86975      0.93262      0.9773       0
C866     C     0.84097      0.94747      0.99342      0
C867     C     0.96749      0.73136      0.19785      0
C868     C     0.96744      0.7275       0.22957      0
C869     C     0.9439       0.59494      0.24468      0
C870     C     0.9558       0.6379       0.26079      0
C871     C     0.94249      0.59059      0.2764       0
C872     C     0.95479      0.63365      0.29251      0
C873     C     0.87712      0.44928      0.2915       0
C874     C     0.9016       0.49355      0.30762      0
C875     C     0.87448      0.44488      0.32323      0
C876     C     0.89931      0.48912      0.33934      0
C877     C     0.77364      0.30856      0.33833      0
C878     C     0.80833      0.34984      0.35444      0
C879     C     0.77003      0.30452      0.37005      0
C880     C     0.80498      0.34564      0.38617      0
C881     C     0.64354      0.18646      0.38516      0
C882     C     0.68506      0.22074      0.40127      0
C883     C     0.63931      0.18319      0.41688      0
C884     C     0.68097      0.21719      0.43299      0
C885     C     0.49947      0.09487      0.43199      0
C886     C     0.54378      0.1188       0.4481       0
C887     C     0.49503      0.09268      0.46371      0
C888     C     0.53936      0.11625      0.47982      0
C889     C     0.35545      0.0427       0.47882      0
C890     C     0.39824      0.05396      0.49493      0
C891     C     0.35124      0.0418       0.51054      0
C892     C     0.39391      0.05266      0.52665      0
C893     C     0.2255       0.03503      0.52564      0
C894     C     0.2626       0.03252      0.54176      0
C895     C     0.22192      0.03551      0.55737      0
C896     C     0.25879      0.03259      0.57348      0
C897     C     0.12226      0.0726       0.57247      0
C898     C     0.15006      0.05657      0.58858      0
C899     C     0.11966      0.07441      0.60419      0
C900     C     0.14714      0.05799      0.62031      0
C901     C     0.05577      0.15175      0.6193       0
C902     C     0.07157      0.12376      0.63541      0
C903     C     0.05441      0.15473      0.65102      0
C904     C     0.06982      0.12641      0.66713      0
C905     C     0.03251      0.26479      0.66613      0
C906     C     0.03477      0.22756      0.68224      0
C907     C     0.03251      0.26864      0.69785      0
C908     C     0.03436      0.23118      0.71396      0
C909     C     0.05473      0.40072      0.71295      0
C910     C     0.04324      0.35787      0.72907      0
C911     C     0.0561       0.40506      0.74468      0
C912     C     0.0442       0.3621       0.76079      0
C913     C     0.12028      0.5463       0.75978      0
C914     C     0.09615      0.50201      0.77589      0
C915     C     0.12288      0.55072      0.7915       0
C916     C     0.0984       0.50645      0.80762      0
C917     C     0.22278      0.68738      0.80661      0
C918     C     0.18835      0.64595      0.82272      0
C919     C     0.22636      0.69144      0.83833      0
C920     C     0.19167      0.65016      0.85444      0
C921     C     0.35225      0.81023      0.85344      0
C922     C     0.31088      0.77569      0.86955      0
C923     C     0.35646      0.81354      0.88516      0
C924     C     0.31494      0.77926      0.90127      0
C925     C     0.49609      0.90289      0.90027      0
C926     C     0.45181      0.87861      0.91638      0
C927     C     0.50053      0.90513      0.93199      0
C928     C     0.45622      0.8812       0.9481       0
C929     C     0.64032      0.95635      0.94709      0
C930     C     0.59743      0.94469      0.96321      0
C931     C     0.64455      0.9573       0.97882      0
C932     C     0.60176      0.94604      0.99493      0
C933     C     0.77089      0.96541      0.99392      0
C934     C     0.96735      0.72361      0.26129      0
C935     C     0.96722      0.7197       0.29301      0
C936     C     0.94103      0.58624      0.30812      0
C937     C     0.95374      0.62939      0.32423      0
C938     C     0.93954      0.58187      0.33984      0
C939     C     0.95265      0.62512      0.35596      0
C940     C     0.8718       0.44047      0.35495      0
C941     C     0.89699      0.48468      0.37106      0
C942     C     0.8691       0.43607      0.38667      0
C943     C     0.89463      0.48025      0.40278      0
C944     C     0.7664       0.3005       0.40178      0
C945     C     0.8016       0.34146      0.41789      0
C946     C     0.76274      0.29649      0.4335       0
C947     C     0.7982       0.3373       0.44961      0
C948     C     0.63507      0.17994      0.4486       0
C949     C     0.67687      0.21367      0.46472      0
C950     C     0.63081      0.17672      0.48033      0
C951     C     0.67276      0.21018      0.49644      0
C952     C     0.4906       0.09052      0.49543      0
C953     C     0.53493      0.11374      0.51154      0
C954     C     0.48616      0.0884       0.52715      0
C955     C     0.53051      0.11125      0.54327      0
C956     C     0.34704      0.04094      0.54226      0
C957     C     0.3896       0.05139      0.55837      0
C958     C     0.34286      0.04012      0.57398      0
C959     C     0.38529      0.05016      0.59009      0
C960     C     0.21837      0.03603      0.58909      0
C961     C     0.255        0.03269      0.6052       0
C962     C     0.21484      0.0366       0.62081      0
C963     C     0.25123      0.03283      0.63692      0
C964     C     0.1171       0.07627      0.63591      0
C965     C     0.14424      0.05946      0.65203      0
C966     C     0.11457      0.07816      0.66764      0
C967     C     0.14138      0.06096      0.68375      0
C968     C     0.05309      0.15773      0.68274      0
C969     C     0.0681       0.1291       0.69886      0
C970     C     0.05181      0.16077      0.71446      0
C971     C     0.06642      0.13181      0.73058      0
C972     C     0.03256      0.2725       0.72957      0
C973     C     0.03398      0.23482      0.74568      0
C974     C     0.03265      0.27639      0.76129      0
C975     C     0.03365      0.23849      0.77741      0
C976     C     0.05751      0.40941      0.7764       0
C977     C     0.04521      0.36635      0.79251      0
C978     C     0.05897      0.41376      0.80812      0
C979     C     0.04626      0.37061      0.82423      0
C980     C     0.12552      0.55512      0.82323      0
C981     C     0.10069      0.51088      0.83934      0
C982     C     0.1282       0.55953      0.85495      0
C983     C     0.10301      0.51532      0.87106      0
C984     C     0.22997      0.69548      0.87005      0
C985     C     0.19502      0.65436      0.88617      0
C986     C     0.2336       0.6995       0.90178      0
C987     C     0.1984       0.65854      0.91789      0
C988     C     0.36069      0.81681      0.91688      0
C989     C     0.31903      0.78281      0.93299      0
C990     C     0.36493      0.82006      0.9486       0
C991     C     0.32313      0.78633      0.96472      0
C992     C     0.50497      0.90732      0.96371      0
C993     C     0.46064      0.88375      0.97982      0
C994     C     0.5094       0.90948      0.99543      0
C995     C     0.96705      0.71578      0.32474      0
C996     C     0.96683      0.71183      0.35646      0
C997     C     0.93801      0.5775       0.37156      0
C998     C     0.95152      0.62084      0.38768      0
C999     C     0.93644      0.57312      0.40329      0
C1000    C     0.95035      0.61655      0.4194       0
C1001    C     0.86636      0.43168      0.41839      0
C1002    C     0.89223      0.47582      0.43451      0
C1003    C     0.86358      0.42729      0.45011      0
C1004    C     0.8898       0.47139      0.46623      0
C1005    C     0.75906      0.29251      0.46522      0
C1006    C     0.79477      0.33314      0.48133      0
C1007    C     0.75535      0.28854      0.49694      0
C1008    C     0.79131      0.32901      0.51305      0
C1009    C     0.62655      0.17353      0.51205      0
C1010    C     0.66863      0.20671      0.52816      0
C1011    C     0.62227      0.17037      0.54377      0
C1012    C     0.66448      0.20327      0.55988      0
C1013    C     0.48173      0.08631      0.55888      0
C1014    C     0.52608      0.10881      0.57499      0
C1015    C     0.47729      0.08426      0.5906       0
C1016    C     0.52165      0.1064       0.60671      0
C1017    C     0.33868      0.03935      0.6057       0
C1018    C     0.38099      0.04897      0.62182      0
C1019    C     0.33453      0.03861      0.63743      0
C1020    C     0.37671      0.04782      0.65354      0
C1021    C     0.21134      0.0372       0.65253      0
C1022    C     0.24749      0.03302      0.66864      0
C1023    C     0.20786      0.03785      0.68425      0
C1024    C     0.24376      0.03325      0.70037      0
C1025    C     0.11208      0.08009      0.69936      0
C1026    C     0.13855      0.06251      0.71547      0
C1027    C     0.10962      0.08206      0.73108      0
C1028    C     0.13575      0.06409      0.74719      0
C1029    C     0.05056      0.16384      0.74619      0
C1030    C     0.06478      0.13456      0.7623       0
C1031    C     0.04936      0.16694      0.77791      0
C1032    C     0.06318      0.13735      0.79402      0
C1033    C     0.03278      0.2803       0.79301      0
C1034    C     0.03336      0.24218      0.80913      0
C1035    C     0.03295      0.28422      0.82474      0
C1036    C     0.03311      0.24589      0.84085      0
C1037    C     0.06046      0.41813      0.83984      0
C1038    C     0.04735      0.37488      0.85596      0
C1039    C     0.06199      0.4225       0.87156      0
C1040    C     0.04848      0.37916      0.88768      0
C1041    C     0.1309       0.56393      0.88667      0
C1042    C     0.10537      0.51975      0.90278      0
C1043    C     0.13364      0.56832      0.91839      0
C1044    C     0.10777      0.52418      0.93451      0
C1045    C     0.23726      0.70351      0.9335       0
C1046    C     0.2018       0.6627       0.94961      0
C1047    C     0.24094      0.70749      0.96522      0
C1048    C     0.20523      0.66686      0.98133      0
C1049    C     0.36919      0.82328      0.98033      0
C1050    C     0.32724      0.78982      0.99644      0
C1051    C     0.96657      0.70787      0.38818      0
C1052    C     0.96627      0.70388      0.4199       0
C1053    C     0.93483      0.56874      0.43501      0
C1054    C     0.94914      0.61225      0.45112      0
C1055    C     0.93318      0.56434      0.46673      0
C1056    C     0.94789      0.60794      0.48284      0
C1057    C     0.86078      0.42291      0.48184      0
C1058    C     0.88733      0.46696      0.49795      0
C1059    C     0.85794      0.41854      0.51356      0
C1060    C     0.88483      0.46254      0.52967      0
C1061    C     0.75162      0.28459      0.52866      0
C1062    C     0.78783      0.32489      0.54478      0
C1063    C     0.74787      0.28067      0.56039      0
C1064    C     0.78432      0.32078      0.5765       0
C1065    C     0.61798      0.16723      0.57549      0
C1066    C     0.66032      0.19985      0.5916       0
C1067    C     0.61368      0.16413      0.60721      0
C1068    C     0.65615      0.19646      0.62333      0
C1069    C     0.47286      0.08225      0.62232      0
C1070    C     0.51722      0.10402      0.63843      0
C1071    C     0.46844      0.08028      0.65404      0
C1072    C     0.51278      0.10168      0.67015      0
C1073    C     0.33038      0.03792      0.66915      0
C1074    C     0.37243      0.04672      0.68526      0
C1075    C     0.32626      0.03726      0.70087      0
C1076    C     0.36817      0.04565      0.71698      0
C1077    C     0.20441      0.03854      0.71598      0
C1078    C     0.24006      0.03352      0.73209      0
C1079    C     0.20099      0.03927      0.7477       0
C1080    C     0.23639      0.03384      0.76381      0
C1081    C     0.1072       0.08407      0.7628       0
C1082    C     0.13299      0.06571      0.77892      0
C1083    C     0.10481      0.08611      0.79453      0
C1084    C     0.13025      0.06738      0.81064      0
C1085    C     0.0482       0.17007      0.80963      0
C1086    C     0.06162      0.14016      0.82574      0
C1087    C     0.04708      0.17323      0.84135      0
C1088    C     0.0601       0.14301      0.85747      0
C1089    C     0.03317      0.28817      0.85646      0
C1090    C     0.03291      0.24963      0.87257      0
C1091    C     0.03343      0.29213      0.88818      0
C1092    C     0.03275      0.25338      0.90429      0
C1093    C     0.06356      0.42688      0.90329      0
C1094    C     0.04965      0.38345      0.9194       0
C1095    C     0.06517      0.43126      0.93501      0
C1096    C     0.05086      0.38775      0.95112      0
C1097    C     0.13642      0.57271      0.95011      0
C1098    C     0.1102       0.52861      0.96623      0
C1099    C     0.13922      0.57709      0.98184      0
C1100    C     0.11267      0.53304      0.99795      0
C1101    C     0.24465      0.71146      0.99694      0
C1102    C     0.96593      0.69988      0.45162      0
C1103    C     0.96555      0.69586      0.48335      0
C1104    C     0.93149      0.55995      0.49845      0
C1105    C     0.9466       0.60361      0.51457      0
C1106    C     0.92977      0.55554      0.53017      0
C1107    C     0.94527      0.59928      0.54629      0
C1108    C     0.85507      0.41418      0.54528      0
C1109    C     0.88229      0.45811      0.56139      0
C1110    C     0.85217      0.40982      0.577        0
C1111    C     0.87972      0.4537       0.59312      0
C1112    C     0.7441       0.27676      0.59211      0
C1113    C     0.78078      0.31669      0.60822      0
C1114    C     0.7403       0.27287      0.62383      0
C1115    C     0.77722      0.31262      0.63994      0
C1116    C     0.60937      0.16106      0.63894      0
C1117    C     0.65196      0.1931       0.65505      0
C1118    C     0.60506      0.15802      0.67066      0
C1119    C     0.64775      0.18977      0.68677      0
C1120    C     0.46401      0.07834      0.68576      0
C1121    C     0.50834      0.09937      0.70188      0
C1122    C     0.45959      0.07645      0.71749      0
C1123    C     0.50391      0.09711      0.7336       0
C1124    C     0.32215      0.03665      0.73259      0
C1125    C     0.36392      0.04463      0.7487       0
C1126    C     0.31805      0.03608      0.76431      0
C1127    C     0.35968      0.04365      0.78043      0
C1128    C     0.19759      0.04005      0.77942      0
C1129    C     0.23274      0.03419      0.79553      0
C1130    C     0.19422      0.04086      0.81114      0
C1131    C     0.22911      0.03459      0.82725      0
C1132    C     0.10245      0.0882       0.82625      0
C1133    C     0.12756      0.06908      0.84236      0
C1134    C     0.10014      0.09032      0.85797      0
C1135    C     0.12489      0.07082      0.87408      0
C1136    C     0.046        0.17641      0.87308      0
C1137    C     0.05862      0.14589      0.88919      0
C1138    C     0.04497      0.17963      0.9048       0
C1139    C     0.05717      0.14881      0.92091      0
C1140    C     0.03373      0.29612      0.9199       0
C1141    C     0.03262      0.25716      0.93602      0
C1142    C     0.03407      0.30012      0.95162      0
C1143    C     0.03254      0.26097      0.96774      0
C1144    C     0.06682      0.43566      0.96673      0
C1145    C     0.05211      0.39206      0.98284      0
C1146    C     0.06851      0.44005      0.99845      0
C1147    C     0.96512      0.69182      0.51507      0
C1148    C     0.96749      0.73136      0.53118      0
C1149    C     0.96466      0.68777      0.54679      0
C1150    C     0.96744      0.7275       0.5629       0
C1151    C     0.928        0.55113      0.5619       0
C1152    C     0.9439       0.59494      0.57801      0
C1153    C     0.9262       0.54672      0.59362      0
C1154    C     0.94249      0.59059      0.60973      0
C1155    C     0.84923      0.40547      0.60872      0
C1156    C     0.87712      0.44928      0.62484      0
C1157    C     0.84627      0.40113      0.64045      0
C1158    C     0.87448      0.44488      0.65656      0
C1159    C     0.73649      0.269        0.65555      0
C1160    C     0.77364      0.30856      0.67167      0
C1161    C     0.73265      0.26515      0.68727      0
C1162    C     0.77003      0.30452      0.70339      0
C1163    C     0.60073      0.15501      0.70238      0
C1164    C     0.64354      0.18646      0.71849      0
C1165    C     0.59639      0.15203      0.7341       0
C1166    C     0.63931      0.18319      0.75022      0
C1167    C     0.45517      0.07459      0.74921      0
C1168    C     0.49947      0.09487      0.76532      0
C1169    C     0.45075      0.07277      0.78093      0
C1170    C     0.49503      0.09268      0.79704      0
C1171    C     0.31397      0.03556      0.79604      0
C1172    C     0.35545      0.0427       0.81215      0
C1173    C     0.30991      0.03507      0.82776      0
C1174    C     0.35124      0.0418       0.84387      0
C1175    C     0.19088      0.04172      0.84286      0
C1176    C     0.2255       0.03503      0.85898      0
C1177    C     0.18756      0.04262      0.87459      0
C1178    C     0.22192      0.03551      0.8907       0
C1179    C     0.09786      0.09247      0.88969      0
C1180    C     0.12226      0.0726       0.9058       0
C1181    C     0.09561      0.09466      0.92141      0
C1182    C     0.11966      0.07441      0.93753      0
C1183    C     0.04397      0.18288      0.93652      0
C1184    C     0.05577      0.15175      0.95263      0
C1185    C     0.04301      0.18615      0.96824      0
C1186    C     0.05441      0.15473      0.98435      0
C1187    C     0.03445      0.30414      0.98335      0
C1188    C     0.03251      0.26479      0.99946      0
C1189    C     0.96415      0.6837       0.57851      0
C1190    C     0.96735      0.72361      0.59463      0
C1191    C     0.96359      0.67961      0.61024      0
C1192    C     0.96722      0.7197       0.62635      0
C1193    C     0.92435      0.5423       0.62534      0
C1194    C     0.94103      0.58624      0.64145      0
C1195    C     0.92247      0.53788      0.65706      0
C1196    C     0.93954      0.58187      0.67318      0
C1197    C     0.84327      0.3968       0.67217      0
C1198    C     0.8718       0.44047      0.68828      0
C1199    C     0.84024      0.39247      0.70389      0
C1200    C     0.8691       0.43607      0.72         0
C1201    C     0.72879      0.26133      0.719        0
C1202    C     0.7664       0.3005       0.73511      0
C1203    C     0.72491      0.25752      0.75072      0
C1204    C     0.76274      0.29649      0.76683      0
C1205    C     0.59204      0.14908      0.76582      0
C1206    C     0.63507      0.17994      0.78194      0
C1207    C     0.58769      0.14617      0.79755      0
C1208    C     0.63081      0.17672      0.81366      0
C1209    C     0.44634      0.07098      0.81265      0
C1210    C     0.4906       0.09052      0.82876      0
C1211    C     0.44194      0.06924      0.84437      0
C1212    C     0.48616      0.0884       0.86049      0
C1213    C     0.30586      0.03463      0.85948      0
C1214    C     0.34704      0.04094      0.87559      0
C1215    C     0.30184      0.03423      0.8912       0
C1216    C     0.34286      0.04012      0.90731      0
C1217    C     0.18427      0.04355      0.90631      0
C1218    C     0.21837      0.03603      0.92242      0
C1219    C     0.18102      0.04453      0.93803      0
C1220    C     0.21484      0.0366       0.95414      0
C1221    C     0.0934       0.09689      0.95314      0
C1222    C     0.1171       0.07627      0.96925      0
C1223    C     0.09123      0.09916      0.98486      0
C1224    C     0.0421       0.18945      0.99996      0
C1225    C     0.963        0.6755       0.64196      0
C1226    C     0.96705      0.71578      0.65807      0
C1227    C     0.96237      0.67138      0.67368      0
C1228    C     0.96683      0.71183      0.68979      0
C1229    C     0.92055      0.53346      0.68879      0
C1230    C     0.93801      0.5775       0.7049       0
C1231    C     0.9186       0.52903      0.72051      0
C1232    C     0.93644      0.57312      0.73662      0
C1233    C     0.83719      0.38816      0.73561      0
C1234    C     0.86636      0.43168      0.75173      0
C1235    C     0.8341       0.38386      0.76733      0
C1236    C     0.86358      0.42729      0.78345      0
C1237    C     0.72101      0.25374      0.78244      0
C1238    C     0.75906      0.29251      0.79855      0
C1239    C     0.71709      0.24998      0.81416      0
C1240    C     0.75535      0.28854      0.83028      0
C1241    C     0.58333      0.14328      0.82927      0
C1242    C     0.62655      0.17353      0.84538      0
C1243    C     0.57896      0.14043      0.86099      0
C1244    C     0.62227      0.17037      0.8771       0
C1245    C     0.43754      0.06754      0.8761       0
C1246    C     0.48173      0.08631      0.89221      0
C1247    C     0.43314      0.06587      0.90782      0
C1248    C     0.47729      0.08426      0.92393      0
C1249    C     0.29783      0.03387      0.92292      0
C1250    C     0.33868      0.03935      0.93904      0
C1251    C     0.29384      0.03355      0.95465      0
C1252    C     0.33453      0.03861      0.97076      0
C1253    C     0.17779      0.04555      0.96975      0
C1254    C     0.21134      0.0372       0.98586      0
C1255    C     0.96169      0.66725      0.7054       0
C1256    C     0.96657      0.70787      0.72151      0
C1257    C     0.96097      0.6631       0.73712      0
C1258    C     0.96627      0.70388      0.75324      0
C1259    C     0.9166       0.5246       0.75223      0
C1260    C     0.93483      0.56874      0.76834      0
C1261    C     0.91457      0.52017      0.78395      0
C1262    C     0.93318      0.56434      0.80006      0
C1263    C     0.83098      0.37956      0.79906      0
C1264    C     0.86078      0.42291      0.81517      0
C1265    C     0.82783      0.37528      0.83078      0
C1266    C     0.85794      0.41854      0.84689      0
C1267    C     0.71315      0.24624      0.84588      0
C1268    C     0.75162      0.28459      0.862        0
C1269    C     0.70919      0.24253      0.87761      0
C1270    C     0.74787      0.28067      0.89372      0
C1271    C     0.57458      0.13761      0.89271      0
C1272    C     0.61798      0.16723      0.90883      0
C1273    C     0.5702       0.13483      0.92443      0
C1274    C     0.61368      0.16413      0.94055      0
C1275    C     0.42876      0.06424      0.93954      0
C1276    C     0.47286      0.08225      0.95565      0
C1277    C     0.42437      0.06266      0.97126      0
C1278    C     0.46844      0.08028      0.98738      0
C1279    C     0.28986      0.03327      0.98637      0
C1280    C     0.96021      0.65893      0.76885      0
C1281    C     0.96593      0.69988      0.78496      0
C1282    C     0.95941      0.65475      0.80057      0
C1283    C     0.96555      0.69586      0.81668      0
C1284    C     0.9125       0.51574      0.81567      0
C1285    C     0.93149      0.55995      0.83179      0
C1286    C     0.9104       0.5113       0.8474       0
C1287    C     0.92977      0.55554      0.86351      0
C1288    C     0.82465      0.37101      0.8625       0
C1289    C     0.85507      0.41418      0.87861      0
C1290    C     0.82145      0.36675      0.89422      0
C1291    C     0.85217      0.40982      0.91034      0
C1292    C     0.70521      0.23884      0.90933      0
C1293    C     0.7441       0.27676      0.92544      0
C1294    C     0.70122      0.23517      0.94105      0
C1295    C     0.7403       0.27287      0.95716      0
C1296    C     0.56581      0.13207      0.95616      0
C1297    C     0.60937      0.16106      0.97227      0
C1298    C     0.56141      0.12935      0.98788      0
C1299    C     0.95857      0.65056      0.83229      0
C1300    C     0.96512      0.69182      0.8484       0
C1301    C     0.95769      0.64635      0.86401      0
C1302    C     0.96466      0.68777      0.88012      0
C1303    C     0.90825      0.50687      0.87912      0
C1304    C     0.928        0.55113      0.89523      0
C1305    C     0.90607      0.50243      0.91084      0
C1306    C     0.9262       0.54672      0.92695      0
C1307    C     0.81821      0.36251      0.92595      0
C1308    C     0.84923      0.40547      0.94206      0
C1309    C     0.81494      0.35827      0.95767      0
C1310    C     0.84627      0.40113      0.97378      0
C1311    C     0.6972       0.23152      0.97277      0
C1312    C     0.73649      0.269        0.98889      0
C1313    C     0.95676      0.64213      0.89573      0
C1314    C     0.96415      0.6837       0.91185      0
C1315    C     0.9558       0.6379       0.92746      0
C1316    C     0.96359      0.67961      0.94357      0
C1317    C     0.90385      0.49799      0.94256      0
C1318    C     0.92435      0.5423       0.95867      0
C1319    C     0.9016       0.49355      0.97428      0
C1320    C     0.92247      0.53788      0.9904       0
C1321    C     0.81165      0.35405      0.98939      0
C1322    C     0.95479      0.63365      0.95918      0
C1323    C     0.963        0.6755       0.97529      0
C1324    C     0.95374      0.62939      0.9909       0


