data_SWNT-15.64A

_audit_creation_method RASPA-1.0
_audit_creation_date 2012-1-22
_audit_author_name 'David Dubbeldam'

_cell_length_a    18.9852
_cell_length_b    18.9852
_cell_length_c    85.0934
_cell_angle_alpha 90
_cell_angle_beta  90
_cell_angle_gamma 120
_cell_volume      26561.8

_symmetry_cell_setting          triclinic
_symmetry_space_group_name_Hall 'P 1'
_symmetry_space_group_name_H-M  'P 1'
_symmetry_Int_Tables_number     1

_symmetry_equiv_pos_as_xyz 'x,y,z'

loop_
_atom_site_label
_atom_site_type_symbol
_atom_site_fract_x
_atom_site_fract_y
_atom_site_fract_z
_atom_site_charge
C1       C     0.97362      0.774        0.00064      0
C2       C     0.96878      0.80372      0.01568      0
C3       C     0.92768      0.89395      0.00315      0
C4       C     0.94669      0.86467      0.01694      0
C5       C     0.93247      0.88755      0.03197      0
C6       C     0.97451      0.76474      0.02947      0
C7       C     0.97054      0.795        0.0445       0
C8       C     0.97512      0.75534      0.05829      0
C9       C     0.97204      0.7861       0.07333      0
C10      C     0.75859      0.97494      0.00691      0
C11      C     0.88323      0.93549      0.0044       0
C12      C     0.8599       0.94917      0.01944      0
C13      C     0.88978      0.93085      0.03323      0
C14      C     0.86714      0.94535      0.04826      0
C15      C     0.95042      0.85735      0.04576      0
C16      C     0.93703      0.88093      0.06079      0
C17      C     0.9539       0.84984      0.07458      0
C18      C     0.94133      0.8741       0.08962      0
C19      C     0.97548      0.74579      0.08711      0
C20      C     0.97327      0.77705      0.10215      0
C21      C     0.97424      0.76784      0.13097      0
C22      C     0.68248      0.97157      0.00816      0
C23      C     0.64737      0.96526      0.0232       0
C24      C     0.79802      0.96996      0.02069      0
C25      C     0.76795      0.97423      0.03573      0
C26      C     0.80669      0.96811      0.04952      0
C27      C     0.77715      0.97326      0.06455      0
C28      C     0.8961       0.92598      0.06205      0
C29      C     0.87417      0.94129      0.07709      0
C30      C     0.90221      0.92086      0.09087      0
C31      C     0.881        0.93698      0.10591      0
C32      C     0.95713      0.84214      0.1034       0
C33      C     0.94539      0.86706      0.11844      0
C34      C     0.9601       0.83424      0.13222      0
C35      C     0.94921      0.85981      0.14726      0
C36      C     0.97495      0.75849      0.15979      0
C37      C     0.97539      0.74899      0.18861      0
C38      C     0.51504      0.91917      0.01067      0
C39      C     0.56353      0.93992      0.02445      0
C40      C     0.52626      0.92435      0.03949      0
C41      C     0.6928       0.97289      0.03699      0
C42      C     0.65801      0.96746      0.05202      0
C43      C     0.70302      0.97395      0.06581      0
C44      C     0.66856      0.96939      0.08084      0
C45      C     0.81519      0.966        0.07834      0
C46      C     0.7862       0.97202      0.09338      0
C47      C     0.82351      0.96363      0.10716      0
C48      C     0.79509      0.97052      0.1222       0
C49      C     0.90809      0.91551      0.11969      0
C50      C     0.88762      0.93242      0.13473      0
C51      C     0.91374      0.90994      0.14851      0
C52      C     0.89402      0.92763      0.16355      0
C53      C     0.96281      0.82616      0.16105      0
C54      C     0.95277      0.85237      0.17608      0
C55      C     0.96526      0.81789      0.18987      0
C56      C     0.95608      0.84473      0.2049       0
C57      C     0.97556      0.73935      0.21744      0
C58      C     0.26715      0.74268      0.01443      0
C59      C     0.42918      0.87185      0.01192      0
C60      C     0.39241      0.84738      0.02696      0
C61      C     0.44031      0.87875      0.04074      0
C62      C     0.40338      0.85496      0.05578      0
C63      C     0.57464      0.94407      0.05328      0
C64      C     0.53747      0.92931      0.06831      0
C65      C     0.58571      0.94796      0.0821       0
C66      C     0.54866      0.93402      0.09714      0
C67      C     0.71312      0.97474      0.09463      0
C68      C     0.67902      0.97107      0.10967      0
C69      C     0.7231       0.97527      0.12345      0
C70      C     0.68937      0.97248      0.13849      0
C71      C     0.83166      0.961        0.13598      0
C72      C     0.80382      0.96876      0.15102      0
C73      C     0.83961      0.95811      0.1648       0
C74      C     0.81238      0.96673      0.17984      0
C75      C     0.91917      0.90413      0.17734      0
C76      C     0.9002       0.92259      0.19237      0
C77      C     0.92435      0.89809      0.20616      0
C78      C     0.90615      0.91732      0.2212       0
C79      C     0.96746      0.80945      0.21869      0
C80      C     0.95913      0.83689      0.23373      0
C81      C     0.96939      0.80083      0.24751      0
C82      C     0.96193      0.82887      0.26255      0
C83      C     0.16047      0.61862      0.0019       0
C84      C     0.19628      0.66506      0.01568      0
C85      C     0.16843      0.62946      0.03072      0
C86      C     0.31074      0.7832       0.02821      0
C87      C     0.27701      0.75228      0.04325      0
C88      C     0.3211       0.79215      0.05704      0
C89      C     0.28699      0.76173      0.07207      0
C90      C     0.45147      0.88544      0.06957      0
C91      C     0.41441      0.86233      0.0846       0
C92      C     0.46266      0.89191      0.09839      0
C93      C     0.42548      0.86951      0.11343      0
C94      C     0.59674      0.95161      0.11092      0
C95      C     0.55982      0.93849      0.12596      0
C96      C     0.60771      0.955        0.13974      0
C97      C     0.57094      0.94271      0.15478      0
C98      C     0.73296      0.97553      0.15227      0
C99      C     0.69962      0.97362      0.16731      0
C100     C     0.74268      0.97553      0.1811       0
C101     C     0.70976      0.97451      0.19613      0
C102     C     0.84738      0.95497      0.19363      0
C103     C     0.82076      0.96445      0.20866      0
C104     C     0.85496      0.95157      0.22245      0
C105     C     0.82896      0.9619       0.23749      0
C106     C     0.92931      0.89184      0.23498      0
C107     C     0.91188      0.91182      0.25002      0
C108     C     0.93402      0.88536      0.2638       0
C109     C     0.91738      0.90609      0.27884      0
C110     C     0.97107      0.79205      0.27633      0
C111     C     0.96447      0.82067      0.29137      0
C112     C     0.97248      0.7831       0.30516      0
C113     C     0.96676      0.81228      0.32019      0
C114     C     0.03722      0.36347      0.00566      0
C115     C     0.10605      0.53373      0.00315      0
C116     C     0.08632      0.49632      0.01819      0
C117     C     0.11245      0.54493      0.03197      0
C118     C     0.09198      0.50755      0.04701      0
C119     C     0.205        0.67554      0.0445       0
C120     C     0.17658      0.64024      0.05954      0
C121     C     0.2139       0.68593      0.07333      0
C122     C     0.1849       0.65093      0.08836      0
C123     C     0.33156      0.80093      0.08586      0
C124     C     0.2971       0.77103      0.10089      0
C125     C     0.34211      0.80954      0.11468      0
C126     C     0.30731      0.78019      0.12972      0
C127     C     0.47386      0.89816      0.12721      0
C128     C     0.4366       0.87647      0.14225      0
C129     C     0.48509      0.90419      0.15603      0
C130     C     0.44775      0.88323      0.17107      0
C131     C     0.61862      0.95814      0.16856      0
C132     C     0.58203      0.94669      0.1836       0
C133     C     0.62946      0.96103      0.19739      0
C134     C     0.59307      0.95042      0.21242      0
C135     C     0.75228      0.97527      0.20992      0
C136     C     0.71979      0.97512      0.22496      0
C137     C     0.76173      0.97473      0.23874      0
C138     C     0.72969      0.97548      0.25378      0
C139     C     0.86233      0.94792      0.25127      0
C140     C     0.83698      0.9591       0.26631      0
C141     C     0.86951      0.94402      0.28009      0
C142     C     0.84481      0.95604      0.29513      0
C143     C     0.93849      0.87867      0.29262      0
C144     C     0.92265      0.90013      0.30766      0
C145     C     0.94271      0.87177      0.32145      0
C146     C     0.92768      0.89395      0.33648      0
C147     C     0.97362      0.774        0.33398      0
C148     C     0.96878      0.80372      0.34902      0
C149     C     0.97451      0.76474      0.3628       0
C150     C     0.97054      0.795        0.37784      0
C151     C     0.02506      0.28365      0.00691      0
C152     C     0.02461      0.25101      0.02195      0
C153     C     0.05083      0.41073      0.01944      0
C154     C     0.03994      0.37426      0.03448      0
C155     C     0.05465      0.42179      0.04826      0
C156     C     0.04291      0.38513      0.0633       0
C157     C     0.11907      0.5561       0.06079      0
C158     C     0.09786      0.51878      0.07583      0
C159     C     0.1259       0.56724      0.08962      0
C160     C     0.10397      0.53         0.10465      0
C161     C     0.22295      0.69622      0.10215      0
C162     C     0.1934       0.66154      0.11719      0
C163     C     0.23216      0.7064       0.13097      0
C164     C     0.20208      0.67206      0.14601      0
C165     C     0.35275      0.81798      0.1435       0
C166     C     0.31763      0.78918      0.15854      0
C167     C     0.36347      0.82625      0.17232      0
C168     C     0.32806      0.79802      0.18736      0
C169     C     0.49632      0.91         0.18485      0
C170     C     0.45893      0.88978      0.19989      0
C171     C     0.50755      0.91558      0.21368      0
C172     C     0.47013      0.8961       0.22871      0
C173     C     0.64024      0.96366      0.22621      0
C174     C     0.60406      0.9539       0.24125      0
C175     C     0.65093      0.96603      0.25503      0
C176     C     0.61499      0.95713      0.27007      0
C177     C     0.77103      0.97394      0.26756      0
C178     C     0.73946      0.97556      0.2826       0
C179     C     0.78019      0.97288      0.29638      0
C180     C     0.74909      0.97538      0.31142      0
C181     C     0.87647      0.93988      0.30892      0
C182     C     0.85245      0.95273      0.32395      0
C183     C     0.88323      0.93549      0.33774      0
C184     C     0.8599       0.94917      0.35277      0
C185     C     0.94669      0.86467      0.35027      0
C186     C     0.93247      0.88755      0.36531      0
C187     C     0.95042      0.85735      0.37909      0
C188     C     0.93703      0.88093      0.39413      0
C189     C     0.97512      0.75534      0.39162      0
C190     C     0.97204      0.7861       0.40666      0
C191     C     0.97548      0.74579      0.42044      0
C192     C     0.97327      0.77705      0.43548      0
C193     C     0.04723      0.14763      0.00942      0
C194     C     0.03474      0.18211      0.0232       0
C195     C     0.04392      0.15527      0.03824      0
C196     C     0.02577      0.29372      0.03573      0
C197     C     0.02444      0.26065      0.05077      0
C198     C     0.02674      0.30389      0.06455      0
C199     C     0.02453      0.27042      0.07959      0
C200     C     0.05871      0.43289      0.07709      0
C201     C     0.04614      0.39606      0.09212      0
C202     C     0.06302      0.44403      0.10591      0
C203     C     0.04962      0.40705      0.12095      0
C204     C     0.13294      0.57834      0.11844      0
C205     C     0.1103       0.5412       0.13348      0
C206     C     0.14019      0.58939      0.14726      0
C207     C     0.11684      0.55238      0.1623       0
C208     C     0.24151      0.71646      0.15979      0
C209     C     0.21092      0.68248      0.17483      0
C210     C     0.25101      0.7264       0.18861      0
C211     C     0.21991      0.6928       0.20365      0
C212     C     0.37426      0.83433      0.20115      0
C213     C     0.33858      0.80669      0.21618      0
C214     C     0.38513      0.84222      0.22997      0
C215     C     0.34919      0.81519      0.24501      0
C216     C     0.51878      0.92092      0.2425       0
C217     C     0.48135      0.90221      0.25754      0
C218     C     0.53         0.92603      0.27132      0
C219     C     0.49257      0.90809      0.28636      0
C220     C     0.66154      0.96813      0.28385      0
C221     C     0.62586      0.9601       0.29889      0
C222     C     0.67206      0.96998      0.31267      0
C223     C     0.63665      0.96281      0.32771      0
C224     C     0.78918      0.97155      0.32521      0
C225     C     0.75859      0.97494      0.34024      0
C226     C     0.79802      0.96996      0.35403      0
C227     C     0.76795      0.97423      0.36907      0
C228     C     0.88978      0.93085      0.36656      0
C229     C     0.86714      0.94535      0.3816       0
C230     C     0.8961       0.92598      0.39538      0
C231     C     0.87417      0.94129      0.41042      0
C232     C     0.9539       0.84984      0.40791      0
C233     C     0.94133      0.8741       0.42295      0
C234     C     0.95713      0.84214      0.43673      0
C235     C     0.94539      0.86706      0.45177      0
C236     C     0.97424      0.76784      0.4643       0
C237     C     0.97495      0.75849      0.49313      0
C238     C     0.18762      0.03327      0.01318      0
C239     C     0.08083      0.09587      0.01067      0
C240     C     0.0998       0.07741      0.02571      0
C241     C     0.07565      0.10191      0.03949      0
C242     C     0.09385      0.08268      0.05453      0
C243     C     0.03254      0.19055      0.05202      0
C244     C     0.04087      0.16311      0.06706      0
C245     C     0.03061      0.19917      0.08084      0
C246     C     0.03807      0.17113      0.09588      0
C247     C     0.02798      0.31418      0.09338      0
C248     C     0.02488      0.28033      0.10841      0
C249     C     0.02948      0.32457      0.1222       0
C250     C     0.0255       0.29035      0.13724      0
C251     C     0.06758      0.4552       0.13473      0
C252     C     0.05335      0.4181       0.14977      0
C253     C     0.07237      0.46639      0.16355      0
C254     C     0.05733      0.42918      0.17859      0
C255     C     0.14763      0.6004       0.17608      0
C256     C     0.1236       0.56353      0.19112      0
C257     C     0.15527      0.61135      0.2049       0
C258     C     0.13057      0.57464      0.21994      0
C259     C     0.26065      0.73621      0.21744      0
C260     C     0.22907      0.70302      0.23247      0
C261     C     0.27042      0.7459       0.24626      0
C262     C     0.23838      0.71312      0.2613       0
C263     C     0.39606      0.84993      0.25879      0
C264     C     0.35988      0.82351      0.27383      0
C265     C     0.40705      0.85744      0.28761      0
C266     C     0.37066      0.83166      0.30265      0
C267     C     0.5412       0.9309       0.30014      0
C268     C     0.50381      0.91374      0.31518      0
C269     C     0.55238      0.93554      0.32897      0
C270     C     0.51504      0.91917      0.344        0
C271     C     0.68248      0.97157      0.3415       0
C272     C     0.64737      0.96526      0.35653      0
C273     C     0.6928       0.97289      0.37032      0
C274     C     0.65801      0.96746      0.38536      0
C275     C     0.80669      0.96811      0.38285      0
C276     C     0.77715      0.97326      0.39789      0
C277     C     0.81519      0.966        0.41167      0
C278     C     0.7862       0.97202      0.42671      0
C279     C     0.90221      0.92086      0.4242       0
C280     C     0.881        0.93698      0.43924      0
C281     C     0.90809      0.91551      0.45303      0
C282     C     0.88762      0.93242      0.46806      0
C283     C     0.9601       0.83424      0.46556      0
C284     C     0.94921      0.85981      0.48059      0
C285     C     0.96281      0.82616      0.49438      0
C286     C     0.95277      0.85237      0.50942      0
C287     C     0.97539      0.74899      0.52195      0
C288     C     0.97556      0.73935      0.55077      0
C289     C     0.30038      0.02638      0.00064      0
C290     C     0.25732      0.02447      0.01443      0
C291     C     0.29024      0.02549      0.02947      0
C292     C     0.15262      0.04503      0.02696      0
C293     C     0.17924      0.03555      0.042        0
C294     C     0.14504      0.04843      0.05578      0
C295     C     0.17104      0.0381       0.07082      0
C296     C     0.07069      0.10816      0.06831      0
C297     C     0.08812      0.08818      0.08335      0
C298     C     0.06598      0.11464      0.09714      0
C299     C     0.08262      0.09391      0.11217      0
C300     C     0.02893      0.20795      0.10967      0
C301     C     0.03553      0.17933      0.1247       0
C302     C     0.02752      0.2169       0.13849      0
C303     C     0.03324      0.18772      0.15353      0
C304     C     0.03124      0.33506      0.15102      0
C305     C     0.02639      0.30049      0.16606      0
C306     C     0.03327      0.34564      0.17984      0
C307     C     0.02754      0.31074      0.19488      0
C308     C     0.07741      0.4776       0.19237      0
C309     C     0.06156      0.44031      0.20741      0
C310     C     0.08268      0.48883      0.2212       0
C311     C     0.06603      0.45147      0.23623      0
C312     C     0.16311      0.62224      0.23373      0
C313     C     0.13775      0.58571      0.24876      0
C314     C     0.17113      0.63306      0.26255      0
C315     C     0.14513      0.59674      0.27759      0
C316     C     0.28033      0.75544      0.27508      0
C317     C     0.24783      0.7231       0.29012      0
C318     C     0.29035      0.76485      0.3039       0
C319     C     0.25742      0.73296      0.31894      0
C320     C     0.4181       0.86475      0.31643      0
C321     C     0.3815       0.83961      0.33147      0
C322     C     0.42918      0.87185      0.34526      0
C323     C     0.39241      0.84738      0.36029      0
C324     C     0.56353      0.93992      0.35779      0
C325     C     0.52626      0.92435      0.37282      0
C326     C     0.57464      0.94407      0.38661      0
C327     C     0.53747      0.92931      0.40165      0
C328     C     0.70302      0.97395      0.39914      0
C329     C     0.66856      0.96939      0.41418      0
C330     C     0.71312      0.97474      0.42796      0
C331     C     0.67902      0.97107      0.443        0
C332     C     0.82351      0.96363      0.44049      0
C333     C     0.79509      0.97052      0.45553      0
C334     C     0.83166      0.961        0.46932      0
C335     C     0.80382      0.96876      0.48435      0
C336     C     0.91374      0.90994      0.48185      0
C337     C     0.89402      0.92763      0.49688      0
C338     C     0.91917      0.90413      0.51067      0
C339     C     0.9002       0.92259      0.52571      0
C340     C     0.96526      0.81789      0.5232       0
C341     C     0.95608      0.84473      0.53824      0
C342     C     0.96746      0.80945      0.55202      0
C343     C     0.95913      0.83689      0.56706      0
C344     C     0.55225      0.11677      0.0044       0
C345     C     0.38138      0.04186      0.0019       0
C346     C     0.41797      0.05331      0.01694      0
C347     C     0.37054      0.03897      0.03072      0
C348     C     0.40693      0.04958      0.04576      0
C349     C     0.24772      0.02473      0.04325      0
C350     C     0.28021      0.02488      0.05829      0
C351     C     0.23827      0.02527      0.07207      0
C352     C     0.27031      0.02452      0.08711      0
C353     C     0.13767      0.05208      0.0846       0
C354     C     0.16302      0.0409       0.09964      0
C355     C     0.13049      0.05598      0.11343      0
C356     C     0.15519      0.04396      0.12846      0
C357     C     0.06151      0.12133      0.12596      0
C358     C     0.07735      0.09987      0.141        0
C359     C     0.05729      0.12823      0.15478      0
C360     C     0.07232      0.10605      0.16982      0
C361     C     0.02638      0.226        0.16731      0
C362     C     0.03122      0.19628      0.18235      0
C363     C     0.02549      0.23526      0.19613      0
C364     C     0.02946      0.205        0.21117      0
C365     C     0.03555      0.35631      0.20866      0
C366     C     0.02895      0.3211       0.2237       0
C367     C     0.0381       0.36706      0.23749      0
C368     C     0.03063      0.33156      0.25252      0
C369     C     0.08818      0.50006      0.25002      0
C370     C     0.07075      0.46266      0.26506      0
C371     C     0.09391      0.5113       0.27884      0
C372     C     0.0757       0.47386      0.29388      0
C373     C     0.17933      0.64381      0.29137      0
C374     C     0.1527       0.60771      0.30641      0
C375     C     0.18772      0.65448      0.32019      0
C376     C     0.16047      0.61862      0.33523      0
C377     C     0.30049      0.7741       0.33272      0
C378     C     0.26715      0.74268      0.34776      0
C379     C     0.31074      0.7832       0.36155      0
C380     C     0.27701      0.75228      0.37658      0
C381     C     0.44031      0.87875      0.37408      0
C382     C     0.40338      0.85496      0.38912      0
C383     C     0.45147      0.88544      0.4029       0
C384     C     0.41441      0.86233      0.41794      0
C385     C     0.58571      0.94796      0.41543      0
C386     C     0.54866      0.93402      0.43047      0
C387     C     0.59674      0.95161      0.44425      0
C388     C     0.55982      0.93849      0.45929      0
C389     C     0.7231       0.97527      0.45678      0
C390     C     0.68937      0.97248      0.47182      0
C391     C     0.73296      0.97553      0.48561      0
C392     C     0.69962      0.97362      0.50064      0
C393     C     0.83961      0.95811      0.49814      0
C394     C     0.81238      0.96673      0.51318      0
C395     C     0.84738      0.95497      0.52696      0
C396     C     0.82076      0.96445      0.542        0
C397     C     0.92435      0.89809      0.53949      0
C398     C     0.90615      0.91732      0.55453      0
C399     C     0.92931      0.89184      0.56831      0
C400     C     0.91188      0.91182      0.58335      0
C401     C     0.96939      0.80083      0.58084      0
C402     C     0.96193      0.82887      0.59588      0
C403     C     0.97107      0.79205      0.60967      0
C404     C     0.96447      0.82067      0.6247       0
C405     C     0.63653      0.17375      0.00566      0
C406     C     0.67194      0.20198      0.02069      0
C407     C     0.50368      0.09         0.01819      0
C408     C     0.54107      0.11022      0.03323      0
C409     C     0.49245      0.08442      0.04701      0
C410     C     0.52987      0.1039       0.06205      0
C411     C     0.35976      0.03634      0.05954      0
C412     C     0.39594      0.0461       0.07458      0
C413     C     0.34907      0.03397      0.08836      0
C414     C     0.38501      0.04287      0.1034       0
C415     C     0.22897      0.02606      0.10089      0
C416     C     0.26054      0.02444      0.11593      0
C417     C     0.21981      0.02712      0.12972      0
C418     C     0.25091      0.02462      0.14475      0
C419     C     0.12353      0.06012      0.14225      0
C420     C     0.14755      0.04727      0.15729      0
C421     C     0.11677      0.06451      0.17107      0
C422     C     0.1401       0.05083      0.18611      0
C423     C     0.05331      0.13533      0.1836       0
C424     C     0.06753      0.11245      0.19864      0
C425     C     0.04958      0.14265      0.21242      0
C426     C     0.06297      0.11907      0.22746      0
C427     C     0.02488      0.24466      0.22496      0
C428     C     0.02796      0.2139       0.23999      0
C429     C     0.02452      0.25421      0.25378      0
C430     C     0.02673      0.22295      0.26881      0
C431     C     0.0409       0.37788      0.26631      0
C432     C     0.03256      0.34211      0.28135      0
C433     C     0.04396      0.38877      0.29513      0
C434     C     0.03476      0.35275      0.31017      0
C435     C     0.09987      0.52252      0.30766      0
C436     C     0.08089      0.48509      0.3227       0
C437     C     0.10605      0.53373      0.33648      0
C438     C     0.08632      0.49632      0.35152      0
C439     C     0.19628      0.66506      0.34902      0
C440     C     0.16843      0.62946      0.36405      0
C441     C     0.205        0.67554      0.37784      0
C442     C     0.17658      0.64024      0.39287      0
C443     C     0.3211       0.79215      0.39037      0
C444     C     0.28699      0.76173      0.40541      0
C445     C     0.33156      0.80093      0.41919      0
C446     C     0.2971       0.77103      0.43423      0
C447     C     0.46266      0.89191      0.43172      0
C448     C     0.42548      0.86951      0.44676      0
C449     C     0.47386      0.89816      0.46054      0
C450     C     0.4366       0.87647      0.47558      0
C451     C     0.60771      0.955        0.47308      0
C452     C     0.57094      0.94271      0.48811      0
C453     C     0.61862      0.95814      0.5019       0
C454     C     0.58203      0.94669      0.51694      0
C455     C     0.74268      0.97553      0.51443      0
C456     C     0.70976      0.97451      0.52947      0
C457     C     0.75228      0.97527      0.54325      0
C458     C     0.71979      0.97512      0.55829      0
C459     C     0.85496      0.95157      0.55578      0
C460     C     0.82896      0.9619       0.57082      0
C461     C     0.86233      0.94792      0.5846       0
C462     C     0.83698      0.9591       0.59964      0
C463     C     0.93402      0.88536      0.59714      0
C464     C     0.91738      0.90609      0.61217      0
C465     C     0.93849      0.87867      0.62596      0
C466     C     0.92265      0.90013      0.641        0
C467     C     0.97248      0.7831       0.63849      0
C468     C     0.96676      0.81228      0.65353      0
C469     C     0.97362      0.774        0.66731      0
C470     C     0.96878      0.80372      0.68235      0
C471     C     0.78908      0.31752      0.00816      0
C472     C     0.74899      0.2736       0.02195      0
C473     C     0.78009      0.3072       0.03699      0
C474     C     0.62574      0.16567      0.03448      0
C475     C     0.66142      0.19331      0.04952      0
C476     C     0.61487      0.15778      0.0633       0
C477     C     0.65081      0.18481      0.07834      0
C478     C     0.48122      0.07908      0.07583      0
C479     C     0.51865      0.09779      0.09087      0
C480     C     0.47         0.07397      0.10465      0
C481     C     0.50743      0.09191      0.11969      0
C482     C     0.33846      0.03187      0.11719      0
C483     C     0.37414      0.0399       0.13222      0
C484     C     0.32794      0.03002      0.14601      0
C485     C     0.36335      0.03719      0.16105      0
C486     C     0.21082      0.02845      0.15854      0
C487     C     0.24141      0.02506      0.17358      0
C488     C     0.20198      0.03004      0.18736      0
C489     C     0.23205      0.02577      0.2024       0
C490     C     0.11022      0.06915      0.19989      0
C491     C     0.13286      0.05465      0.21493      0
C492     C     0.1039       0.07402      0.22871      0
C493     C     0.12583      0.05871      0.24375      0
C494     C     0.0461       0.15016      0.24125      0
C495     C     0.05867      0.1259       0.25628      0
C496     C     0.04287      0.15786      0.27007      0
C497     C     0.05461      0.13294      0.28511      0
C498     C     0.02444      0.26389      0.2826       0
C499     C     0.02576      0.23216      0.29764      0
C500     C     0.02462      0.27371      0.31142      0
C501     C     0.02505      0.24151      0.32646      0
C502     C     0.04727      0.39972      0.32395      0
C503     C     0.03722      0.36347      0.33899      0
C504     C     0.05083      0.41073      0.35277      0
C505     C     0.03994      0.37426      0.36781      0
C506     C     0.11245      0.54493      0.36531      0
C507     C     0.09198      0.50755      0.38034      0
C508     C     0.11907      0.5561       0.39413      0
C509     C     0.09786      0.51878      0.40917      0
C510     C     0.2139       0.68593      0.40666      0
C511     C     0.1849       0.65093      0.4217       0
C512     C     0.22295      0.69622      0.43548      0
C513     C     0.1934       0.66154      0.45052      0
C514     C     0.34211      0.80954      0.44801      0
C515     C     0.30731      0.78019      0.46305      0
C516     C     0.35275      0.81798      0.47683      0
C517     C     0.31763      0.78918      0.49187      0
C518     C     0.48509      0.90419      0.48937      0
C519     C     0.44775      0.88323      0.5044       0
C520     C     0.49632      0.91         0.51819      0
C521     C     0.45893      0.88978      0.53323      0
C522     C     0.62946      0.96103      0.53072      0
C523     C     0.59307      0.95042      0.54576      0
C524     C     0.64024      0.96366      0.55954      0
C525     C     0.60406      0.9539       0.57458      0
C526     C     0.76173      0.97473      0.57207      0
C527     C     0.72969      0.97548      0.58711      0
C528     C     0.77103      0.97394      0.60089      0
C529     C     0.73946      0.97556      0.61593      0
C530     C     0.86951      0.94402      0.61343      0
C531     C     0.84481      0.95604      0.62846      0
C532     C     0.87647      0.93988      0.64225      0
C533     C     0.85245      0.95273      0.65729      0
C534     C     0.94271      0.87177      0.65478      0
C535     C     0.92768      0.89395      0.66982      0
C536     C     0.94669      0.86467      0.6836       0
C537     C     0.93247      0.88755      0.69864      0
C538     C     0.97451      0.76474      0.69613      0
C539     C     0.97054      0.795        0.71117      0
C540     C     0.97512      0.75534      0.72496      0
C541     C     0.97204      0.7861       0.73999      0
C542     C     0.94267      0.57082      0.01192      0
C543     C     0.85237      0.3996       0.00942      0
C544     C     0.8764       0.43647      0.02445      0
C545     C     0.84473      0.38865      0.03824      0
C546     C     0.86943      0.42536      0.05328      0
C547     C     0.73935      0.26379      0.05077      0
C548     C     0.77093      0.29698      0.06581      0
C549     C     0.72958      0.2541       0.07959      0
C550     C     0.76162      0.28688      0.09463      0
C551     C     0.60394      0.15007      0.09212      0
C552     C     0.64012      0.17649      0.10716      0
C553     C     0.59295      0.14256      0.12095      0
C554     C     0.62934      0.16834      0.13598      0
C555     C     0.4588       0.0691       0.13348      0
C556     C     0.49619      0.08626      0.14851      0
C557     C     0.44762      0.06446      0.1623       0
C558     C     0.48496      0.08083      0.17734      0
C559     C     0.31752      0.02843      0.17483      0
C560     C     0.35263      0.03474      0.18987      0
C561     C     0.3072       0.02711      0.20365      0
C562     C     0.34199      0.03254      0.21869      0
C563     C     0.19331      0.03189      0.21618      0
C564     C     0.22285      0.02674      0.23122      0
C565     C     0.18481      0.034        0.24501      0
C566     C     0.2138       0.02798      0.26004      0
C567     C     0.09779      0.07914      0.25754      0
C568     C     0.119        0.06302      0.27257      0
C569     C     0.09191      0.08449      0.28636      0
C570     C     0.11238      0.06758      0.3014       0
C571     C     0.0399       0.16576      0.29889      0
C572     C     0.05079      0.14019      0.31393      0
C573     C     0.03719      0.17384      0.32771      0
C574     C     0.04723      0.14763      0.34275      0
C575     C     0.02506      0.28365      0.34024      0
C576     C     0.02461      0.25101      0.35528      0
C577     C     0.02577      0.29372      0.36907      0
C578     C     0.02444      0.26065      0.3841       0
C579     C     0.05465      0.42179      0.3816       0
C580     C     0.04291      0.38513      0.39663      0
C581     C     0.05871      0.43289      0.41042      0
C582     C     0.04614      0.39606      0.42546      0
C583     C     0.1259       0.56724      0.42295      0
C584     C     0.10397      0.53         0.43799      0
C585     C     0.13294      0.57834      0.45177      0
C586     C     0.1103       0.5412       0.46681      0
C587     C     0.23216      0.7064       0.4643       0
C588     C     0.20208      0.67206      0.47934      0
C589     C     0.24151      0.71646      0.49313      0
C590     C     0.21092      0.68248      0.50816      0
C591     C     0.36347      0.82625      0.50566      0
C592     C     0.32806      0.79802      0.52069      0
C593     C     0.37426      0.83433      0.53448      0
C594     C     0.33858      0.80669      0.54952      0
C595     C     0.50755      0.91558      0.54701      0
C596     C     0.47013      0.8961       0.56205      0
C597     C     0.51878      0.92092      0.57583      0
C598     C     0.48135      0.90221      0.59087      0
C599     C     0.65093      0.96603      0.58836      0
C600     C     0.61499      0.95713      0.6034       0
C601     C     0.66154      0.96813      0.61719      0
C602     C     0.62586      0.9601       0.63222      0
C603     C     0.78019      0.97288      0.62972      0
C604     C     0.74909      0.97538      0.64475      0
C605     C     0.78918      0.97155      0.65854      0
C606     C     0.75859      0.97494      0.67358      0
C607     C     0.88323      0.93549      0.67107      0
C608     C     0.8599       0.94917      0.68611      0
C609     C     0.88978      0.93085      0.69989      0
C610     C     0.86714      0.94535      0.71493      0
C611     C     0.95042      0.85735      0.71242      0
C612     C     0.93703      0.88093      0.72746      0
C613     C     0.9539       0.84984      0.74125      0
C614     C     0.94133      0.8741       0.75628      0
C615     C     0.97548      0.74579      0.75378      0
C616     C     0.97327      0.77705      0.76881      0
C617     C     0.97424      0.76784      0.79764      0
C618     C     0.96673      0.65436      0.01318      0
C619     C     0.97246      0.68926      0.02821      0
C620     C     0.92259      0.5224       0.02571      0
C621     C     0.93844      0.55969      0.04074      0
C622     C     0.91732      0.51117      0.05453      0
C623     C     0.93397      0.54853      0.06957      0
C624     C     0.83689      0.37776      0.06706      0
C625     C     0.86225      0.41429      0.0821       0
C626     C     0.82887      0.36694      0.09588      0
C627     C     0.85487      0.40326      0.11092      0
C628     C     0.71967      0.24456      0.10841      0
C629     C     0.75217      0.2769       0.12345      0
C630     C     0.70965      0.23515      0.13724      0
C631     C     0.74258      0.26704      0.15227      0
C632     C     0.5819       0.13525      0.14977      0
C633     C     0.6185       0.16039      0.1648       0
C634     C     0.57082      0.12815      0.17859      0
C635     C     0.60759      0.15262      0.19363      0
C636     C     0.43647      0.06008      0.19112      0
C637     C     0.47374      0.07565      0.20616      0
C638     C     0.42536      0.05593      0.21994      0
C639     C     0.46253      0.07069      0.23498      0
C640     C     0.29698      0.02605      0.23247      0
C641     C     0.33144      0.03061      0.24751      0
C642     C     0.28688      0.02526      0.2613       0
C643     C     0.32098      0.02893      0.27633      0
C644     C     0.17649      0.03637      0.27383      0
C645     C     0.20491      0.02948      0.28886      0
C646     C     0.16834      0.039        0.30265      0
C647     C     0.19618      0.03124      0.31769      0
C648     C     0.08626      0.09006      0.31518      0
C649     C     0.10598      0.07237      0.33022      0
C650     C     0.08083      0.09587      0.344        0
C651     C     0.0998       0.07741      0.35904      0
C652     C     0.03474      0.18211      0.35653      0
C653     C     0.04392      0.15527      0.37157      0
C654     C     0.03254      0.19055      0.38536      0
C655     C     0.04087      0.16311      0.40039      0
C656     C     0.02674      0.30389      0.39789      0
C657     C     0.02453      0.27042      0.41293      0
C658     C     0.02798      0.31418      0.42671      0
C659     C     0.02488      0.28033      0.44175      0
C660     C     0.06302      0.44403      0.43924      0
C661     C     0.04962      0.40705      0.45428      0
C662     C     0.06758      0.4552       0.46806      0
C663     C     0.05335      0.4181       0.4831       0
C664     C     0.14019      0.58939      0.48059      0
C665     C     0.11684      0.55238      0.49563      0
C666     C     0.14763      0.6004       0.50942      0
C667     C     0.1236       0.56353      0.52445      0
C668     C     0.25101      0.7264       0.52195      0
C669     C     0.21991      0.6928       0.53699      0
C670     C     0.26065      0.73621      0.55077      0
C671     C     0.22907      0.70302      0.56581      0
C672     C     0.38513      0.84222      0.5633       0
C673     C     0.34919      0.81519      0.57834      0
C674     C     0.39606      0.84993      0.59212      0
C675     C     0.35988      0.82351      0.60716      0
C676     C     0.53         0.92603      0.60465      0
C677     C     0.49257      0.90809      0.61969      0
C678     C     0.5412       0.9309       0.63348      0
C679     C     0.50381      0.91374      0.64851      0
C680     C     0.67206      0.96998      0.64601      0
C681     C     0.63665      0.96281      0.66105      0
C682     C     0.68248      0.97157      0.67483      0
C683     C     0.64737      0.96526      0.68987      0
C684     C     0.79802      0.96996      0.68736      0
C685     C     0.76795      0.97423      0.7024       0
C686     C     0.80669      0.96811      0.71618      0
C687     C     0.77715      0.97326      0.73122      0
C688     C     0.8961       0.92598      0.72871      0
C689     C     0.87417      0.94129      0.74375      0
C690     C     0.90221      0.92086      0.75754      0
C691     C     0.881        0.93698      0.77257      0
C692     C     0.95713      0.84214      0.77007      0
C693     C     0.94539      0.86706      0.78511      0
C694     C     0.9601       0.83424      0.79889      0
C695     C     0.94921      0.85981      0.81393      0
C696     C     0.97495      0.75849      0.82646      0
C697     C     0.97539      0.74899      0.85528      0
C698     C     0.96445      0.64369      0.042        0
C699     C     0.97105      0.6789       0.05704      0
C700     C     0.9619       0.63294      0.07082      0
C701     C     0.96937      0.66844      0.08586      0
C702     C     0.91182      0.49994      0.08335      0
C703     C     0.92925      0.53734      0.09839      0
C704     C     0.90609      0.4887       0.11217      0
C705     C     0.9243       0.52614      0.12721      0
C706     C     0.82067      0.35619      0.1247       0
C707     C     0.8473       0.39229      0.13974      0
C708     C     0.81228      0.34552      0.15353      0
C709     C     0.83953      0.38138      0.16856      0
C710     C     0.69951      0.2259       0.16606      0
C711     C     0.73285      0.25732      0.1811       0
C712     C     0.68926      0.2168       0.19488      0
C713     C     0.72299      0.24772      0.20992      0
C714     C     0.55969      0.12125      0.20741      0
C715     C     0.59662      0.14504      0.22245      0
C716     C     0.54853      0.11456      0.23623      0
C717     C     0.58559      0.13767      0.25127      0
C718     C     0.41429      0.05204      0.24876      0
C719     C     0.45134      0.06598      0.2638       0
C720     C     0.40326      0.04839      0.27759      0
C721     C     0.44018      0.06151      0.29262      0
C722     C     0.2769       0.02473      0.29012      0
C723     C     0.31063      0.02752      0.30516      0
C724     C     0.26704      0.02447      0.31894      0
C725     C     0.30038      0.02638      0.33398      0
C726     C     0.16039      0.04189      0.33147      0
C727     C     0.18762      0.03327      0.34651      0
C728     C     0.15262      0.04503      0.36029      0
C729     C     0.17924      0.03555      0.37533      0
C730     C     0.07565      0.10191      0.37282      0
C731     C     0.09385      0.08268      0.38786      0
C732     C     0.07069      0.10816      0.40165      0
C733     C     0.08812      0.08818      0.41668      0
C734     C     0.03061      0.19917      0.41418      0
C735     C     0.03807      0.17113      0.42922      0
C736     C     0.02893      0.20795      0.443        0
C737     C     0.03553      0.17933      0.45804      0
C738     C     0.02948      0.32457      0.45553      0
C739     C     0.0255       0.29035      0.47057      0
C740     C     0.03124      0.33506      0.48435      0
C741     C     0.02639      0.30049      0.49939      0
C742     C     0.07237      0.46639      0.49688      0
C743     C     0.05733      0.42918      0.51192      0
C744     C     0.07741      0.4776       0.52571      0
C745     C     0.06156      0.44031      0.54074      0
C746     C     0.15527      0.61135      0.53824      0
C747     C     0.13057      0.57464      0.55328      0
C748     C     0.16311      0.62224      0.56706      0
C749     C     0.13775      0.58571      0.5821       0
C750     C     0.27042      0.7459       0.57959      0
C751     C     0.23838      0.71312      0.59463      0
C752     C     0.28033      0.75544      0.60841      0
C753     C     0.24783      0.7231       0.62345      0
C754     C     0.40705      0.85744      0.62095      0
C755     C     0.37066      0.83166      0.63598      0
C756     C     0.4181       0.86475      0.64977      0
C757     C     0.3815       0.83961      0.6648       0
C758     C     0.55238      0.93554      0.6623       0
C759     C     0.51504      0.91917      0.67734      0
C760     C     0.56353      0.93992      0.69112      0
C761     C     0.52626      0.92435      0.70616      0
C762     C     0.6928       0.97289      0.70365      0
C763     C     0.65801      0.96746      0.71869      0
C764     C     0.70302      0.97395      0.73247      0
C765     C     0.66856      0.96939      0.74751      0
C766     C     0.81519      0.966        0.74501      0
C767     C     0.7862       0.97202      0.76004      0
C768     C     0.82351      0.96363      0.77383      0
C769     C     0.79509      0.97052      0.78886      0
C770     C     0.90809      0.91551      0.78636      0
C771     C     0.88762      0.93242      0.8014       0
C772     C     0.91374      0.90994      0.81518      0
C773     C     0.89402      0.92763      0.83022      0
C774     C     0.96281      0.82616      0.82771      0
C775     C     0.95277      0.85237      0.84275      0
C776     C     0.96526      0.81789      0.85653      0
C777     C     0.95608      0.84473      0.87157      0
C778     C     0.97556      0.73935      0.8841       0
C779     C     0.9591       0.62212      0.09964      0
C780     C     0.96744      0.65789      0.11468      0
C781     C     0.95604      0.61123      0.12846      0
C782     C     0.96524      0.64725      0.1435       0
C783     C     0.90013      0.47748      0.141        0
C784     C     0.91911      0.51491      0.15603      0
C785     C     0.89395      0.46627      0.16982      0
C786     C     0.91368      0.50368      0.18485      0
C787     C     0.80372      0.33494      0.18235      0
C788     C     0.83157      0.37054      0.19739      0
C789     C     0.795        0.32446      0.21117      0
C790     C     0.82342      0.35976      0.22621      0
C791     C     0.6789       0.20785      0.2237       0
C792     C     0.71301      0.23827      0.23874      0
C793     C     0.66844      0.19907      0.25252      0
C794     C     0.7029       0.22897      0.26756      0
C795     C     0.53734      0.10809      0.26506      0
C796     C     0.57452      0.13049      0.28009      0
C797     C     0.52614      0.10184      0.29388      0
C798     C     0.5634       0.12353      0.30892      0
C799     C     0.39229      0.045        0.30641      0
C800     C     0.42906      0.05729      0.32145      0
C801     C     0.38138      0.04186      0.33523      0
C802     C     0.41797      0.05331      0.35027      0
C803     C     0.25732      0.02447      0.34776      0
C804     C     0.29024      0.02549      0.3628       0
C805     C     0.24772      0.02473      0.37658      0
C806     C     0.28021      0.02488      0.39162      0
C807     C     0.14504      0.04843      0.38912      0
C808     C     0.17104      0.0381       0.40415      0
C809     C     0.13767      0.05208      0.41794      0
C810     C     0.16302      0.0409       0.43298      0
C811     C     0.06598      0.11464      0.43047      0
C812     C     0.08262      0.09391      0.44551      0
C813     C     0.06151      0.12133      0.45929      0
C814     C     0.07735      0.09987      0.47433      0
C815     C     0.02752      0.2169       0.47182      0
C816     C     0.03324      0.18772      0.48686      0
C817     C     0.02638      0.226        0.50064      0
C818     C     0.03122      0.19628      0.51568      0
C819     C     0.03327      0.34564      0.51318      0
C820     C     0.02754      0.31074      0.52821      0
C821     C     0.03555      0.35631      0.542        0
C822     C     0.02895      0.3211       0.55704      0
C823     C     0.08268      0.48883      0.55453      0
C824     C     0.06603      0.45147      0.56957      0
C825     C     0.08818      0.50006      0.58335      0
C826     C     0.07075      0.46266      0.59839      0
C827     C     0.17113      0.63306      0.59588      0
C828     C     0.14513      0.59674      0.61092      0
C829     C     0.17933      0.64381      0.6247       0
C830     C     0.1527       0.60771      0.63974      0
C831     C     0.29035      0.76485      0.63724      0
C832     C     0.25742      0.73296      0.65227      0
C833     C     0.30049      0.7741       0.66606      0
C834     C     0.26715      0.74268      0.6811       0
C835     C     0.42918      0.87185      0.67859      0
C836     C     0.39241      0.84738      0.69363      0
C837     C     0.44031      0.87875      0.70741      0
C838     C     0.40338      0.85496      0.72245      0
C839     C     0.57464      0.94407      0.71994      0
C840     C     0.53747      0.92931      0.73498      0
C841     C     0.58571      0.94796      0.74876      0
C842     C     0.54866      0.93402      0.7638       0
C843     C     0.71312      0.97474      0.7613       0
C844     C     0.67902      0.97107      0.77633      0
C845     C     0.7231       0.97527      0.79012      0
C846     C     0.68937      0.97248      0.80516      0
C847     C     0.83166      0.961        0.80265      0
C848     C     0.80382      0.96876      0.81769      0
C849     C     0.83961      0.95811      0.83147      0
C850     C     0.81238      0.96673      0.84651      0
C851     C     0.91917      0.90413      0.844        0
C852     C     0.9002       0.92259      0.85904      0
C853     C     0.92435      0.89809      0.87282      0
C854     C     0.90615      0.91732      0.88786      0
C855     C     0.96746      0.80945      0.88536      0
C856     C     0.95913      0.83689      0.90039      0
C857     C     0.96939      0.80083      0.91418      0
C858     C     0.96193      0.82887      0.92922      0
C859     C     0.97556      0.73611      0.11593      0
C860     C     0.97538      0.72629      0.14475      0
C861     C     0.95273      0.60028      0.15729      0
C862     C     0.96278      0.63653      0.17232      0
C863     C     0.94917      0.58927      0.18611      0
C864     C     0.96006      0.62574      0.20115      0
C865     C     0.88755      0.45507      0.19864      0
C866     C     0.90802      0.49245      0.21368      0
C867     C     0.88093      0.4439       0.22746      0
C868     C     0.90214      0.48122      0.2425       0
C869     C     0.7861       0.31407      0.23999      0
C870     C     0.8151       0.34907      0.25503      0
C871     C     0.77705      0.30378      0.26881      0
C872     C     0.8066       0.33846      0.28385      0
C873     C     0.65789      0.19046      0.28135      0
C874     C     0.69269      0.21981      0.29638      0
C875     C     0.64725      0.18202      0.31017      0
C876     C     0.68237      0.21082      0.32521      0
C877     C     0.51491      0.09581      0.3227       0
C878     C     0.55225      0.11677      0.33774      0
C879     C     0.50368      0.09         0.35152      0
C880     C     0.54107      0.11022      0.36656      0
C881     C     0.37054      0.03897      0.36405      0
C882     C     0.40693      0.04958      0.37909      0
C883     C     0.35976      0.03634      0.39287      0
C884     C     0.39594      0.0461       0.40791      0
C885     C     0.23827      0.02527      0.40541      0
C886     C     0.27031      0.02452      0.42044      0
C887     C     0.22897      0.02606      0.43423      0
C888     C     0.26054      0.02444      0.44927      0
C889     C     0.13049      0.05598      0.44676      0
C890     C     0.15519      0.04396      0.4618       0
C891     C     0.12353      0.06012      0.47558      0
C892     C     0.14755      0.04727      0.49062      0
C893     C     0.05729      0.12823      0.48811      0
C894     C     0.07232      0.10605      0.50315      0
C895     C     0.05331      0.13533      0.51694      0
C896     C     0.06753      0.11245      0.53197      0
C897     C     0.02549      0.23526      0.52947      0
C898     C     0.02946      0.205        0.5445       0
C899     C     0.02488      0.24466      0.55829      0
C900     C     0.02796      0.2139       0.57333      0
C901     C     0.0381       0.36706      0.57082      0
C902     C     0.03063      0.33156      0.58586      0
C903     C     0.0409       0.37788      0.59964      0
C904     C     0.03256      0.34211      0.61468      0
C905     C     0.09391      0.5113       0.61217      0
C906     C     0.0757       0.47386      0.62721      0
C907     C     0.09987      0.52252      0.641        0
C908     C     0.08089      0.48509      0.65603      0
C909     C     0.18772      0.65448      0.65353      0
C910     C     0.16047      0.61862      0.66856      0
C911     C     0.19628      0.66506      0.68235      0
C912     C     0.16843      0.62946      0.69739      0
C913     C     0.31074      0.7832       0.69488      0
C914     C     0.27701      0.75228      0.70992      0
C915     C     0.3211       0.79215      0.7237       0
C916     C     0.28699      0.76173      0.73874      0
C917     C     0.45147      0.88544      0.73623      0
C918     C     0.41441      0.86233      0.75127      0
C919     C     0.46266      0.89191      0.76506      0
C920     C     0.42548      0.86951      0.78009      0
C921     C     0.59674      0.95161      0.77759      0
C922     C     0.55982      0.93849      0.79262      0
C923     C     0.60771      0.955        0.80641      0
C924     C     0.57094      0.94271      0.82145      0
C925     C     0.73296      0.97553      0.81894      0
C926     C     0.69962      0.97362      0.83398      0
C927     C     0.74268      0.97553      0.84776      0
C928     C     0.70976      0.97451      0.8628       0
C929     C     0.84738      0.95497      0.86029      0
C930     C     0.82076      0.96445      0.87533      0
C931     C     0.85496      0.95157      0.88912      0
C932     C     0.82896      0.9619       0.90415      0
C933     C     0.92931      0.89184      0.90165      0
C934     C     0.91188      0.91182      0.91668      0
C935     C     0.93402      0.88536      0.93047      0
C936     C     0.91738      0.90609      0.94551      0
C937     C     0.97107      0.79205      0.943        0
C938     C     0.96447      0.82067      0.95804      0
C939     C     0.97248      0.7831       0.97182      0
C940     C     0.96676      0.81228      0.98686      0
C941     C     0.97494      0.71635      0.17358      0
C942     C     0.97423      0.70628      0.2024       0
C943     C     0.94535      0.57821      0.21493      0
C944     C     0.95709      0.61487      0.22997      0
C945     C     0.94129      0.56711      0.24375      0
C946     C     0.95386      0.60394      0.25879      0
C947     C     0.8741       0.43276      0.25628      0
C948     C     0.89603      0.47         0.27132      0
C949     C     0.86706      0.42166      0.28511      0
C950     C     0.8897       0.4588       0.30014      0
C951     C     0.76784      0.2936       0.29764      0
C952     C     0.79792      0.32794      0.31267      0
C953     C     0.75849      0.28354      0.32646      0
C954     C     0.78908      0.31752      0.3415       0
C955     C     0.63653      0.17375      0.33899      0
C956     C     0.67194      0.20198      0.35403      0
C957     C     0.62574      0.16567      0.36781      0
C958     C     0.66142      0.19331      0.38285      0
C959     C     0.49245      0.08442      0.38034      0
C960     C     0.52987      0.1039       0.39538      0
C961     C     0.48122      0.07908      0.40917      0
C962     C     0.51865      0.09779      0.4242       0
C963     C     0.34907      0.03397      0.4217       0
C964     C     0.38501      0.04287      0.43673      0
C965     C     0.33846      0.03187      0.45052      0
C966     C     0.37414      0.0399       0.46556      0
C967     C     0.21981      0.02712      0.46305      0
C968     C     0.25091      0.02462      0.47809      0
C969     C     0.21082      0.02845      0.49187      0
C970     C     0.24141      0.02506      0.50691      0
C971     C     0.11677      0.06451      0.5044       0
C972     C     0.1401       0.05083      0.51944      0
C973     C     0.11022      0.06915      0.53323      0
C974     C     0.13286      0.05465      0.54826      0
C975     C     0.04958      0.14265      0.54576      0
C976     C     0.06297      0.11907      0.56079      0
C977     C     0.0461       0.15016      0.57458      0
C978     C     0.05867      0.1259       0.58962      0
C979     C     0.02452      0.25421      0.58711      0
C980     C     0.02673      0.22295      0.60215      0
C981     C     0.02444      0.26389      0.61593      0
C982     C     0.02576      0.23216      0.63097      0
C983     C     0.04396      0.38877      0.62846      0
C984     C     0.03476      0.35275      0.6435       0
C985     C     0.04727      0.39972      0.65729      0
C986     C     0.03722      0.36347      0.67232      0
C987     C     0.10605      0.53373      0.66982      0
C988     C     0.08632      0.49632      0.68485      0
C989     C     0.11245      0.54493      0.69864      0
C990     C     0.09198      0.50755      0.71368      0
C991     C     0.205        0.67554      0.71117      0
C992     C     0.17658      0.64024      0.72621      0
C993     C     0.2139       0.68593      0.73999      0
C994     C     0.1849       0.65093      0.75503      0
C995     C     0.33156      0.80093      0.75252      0
C996     C     0.2971       0.77103      0.76756      0
C997     C     0.34211      0.80954      0.78135      0
C998     C     0.30731      0.78019      0.79638      0
C999     C     0.47386      0.89816      0.79388      0
C1000    C     0.4366       0.87647      0.80892      0
C1001    C     0.48509      0.90419      0.8227       0
C1002    C     0.44775      0.88323      0.83774      0
C1003    C     0.61862      0.95814      0.83523      0
C1004    C     0.58203      0.94669      0.85027      0
C1005    C     0.62946      0.96103      0.86405      0
C1006    C     0.59307      0.95042      0.87909      0
C1007    C     0.75228      0.97527      0.87658      0
C1008    C     0.71979      0.97512      0.89162      0
C1009    C     0.76173      0.97473      0.90541      0
C1010    C     0.72969      0.97548      0.92044      0
C1011    C     0.86233      0.94792      0.91794      0
C1012    C     0.83698      0.9591       0.93298      0
C1013    C     0.86951      0.94402      0.94676      0
C1014    C     0.84481      0.95604      0.9618       0
C1015    C     0.93849      0.87867      0.95929      0
C1016    C     0.92265      0.90013      0.97433      0
C1017    C     0.94271      0.87177      0.98811      0
C1018    C     0.97326      0.69611      0.23122      0
C1019    C     0.97547      0.72958      0.24626      0
C1020    C     0.97202      0.68582      0.26004      0
C1021    C     0.97512      0.71967      0.27508      0
C1022    C     0.93698      0.55597      0.27257      0
C1023    C     0.95038      0.59295      0.28761      0
C1024    C     0.93242      0.5448       0.3014       0
C1025    C     0.94665      0.5819       0.31643      0
C1026    C     0.85981      0.41061      0.31393      0
C1027    C     0.88316      0.44762      0.32897      0
C1028    C     0.85237      0.3996       0.34275      0
C1029    C     0.8764       0.43647      0.35779      0
C1030    C     0.74899      0.2736       0.35528      0
C1031    C     0.78009      0.3072       0.37032      0
C1032    C     0.73935      0.26379      0.3841       0
C1033    C     0.77093      0.29698      0.39914      0
C1034    C     0.61487      0.15778      0.39663      0
C1035    C     0.65081      0.18481      0.41167      0
C1036    C     0.60394      0.15007      0.42546      0
C1037    C     0.64012      0.17649      0.44049      0
C1038    C     0.47         0.07397      0.43799      0
C1039    C     0.50743      0.09191      0.45303      0
C1040    C     0.4588       0.0691       0.46681      0
C1041    C     0.49619      0.08626      0.48185      0
C1042    C     0.32794      0.03002      0.47934      0
C1043    C     0.36335      0.03719      0.49438      0
C1044    C     0.31752      0.02843      0.50816      0
C1045    C     0.35263      0.03474      0.5232       0
C1046    C     0.20198      0.03004      0.52069      0
C1047    C     0.23205      0.02577      0.53573      0
C1048    C     0.19331      0.03189      0.54952      0
C1049    C     0.22285      0.02674      0.56455      0
C1050    C     0.1039       0.07402      0.56205      0
C1051    C     0.12583      0.05871      0.57709      0
C1052    C     0.09779      0.07914      0.59087      0
C1053    C     0.119        0.06302      0.60591      0
C1054    C     0.04287      0.15786      0.6034       0
C1055    C     0.05461      0.13294      0.61844      0
C1056    C     0.0399       0.16576      0.63222      0
C1057    C     0.05079      0.14019      0.64726      0
C1058    C     0.02462      0.27371      0.64475      0
C1059    C     0.02505      0.24151      0.65979      0
C1060    C     0.02506      0.28365      0.67358      0
C1061    C     0.02461      0.25101      0.68861      0
C1062    C     0.05083      0.41073      0.68611      0
C1063    C     0.03994      0.37426      0.70115      0
C1064    C     0.05465      0.42179      0.71493      0
C1065    C     0.04291      0.38513      0.72997      0
C1066    C     0.11907      0.5561       0.72746      0
C1067    C     0.09786      0.51878      0.7425       0
C1068    C     0.1259       0.56724      0.75628      0
C1069    C     0.10397      0.53         0.77132      0
C1070    C     0.22295      0.69622      0.76881      0
C1071    C     0.1934       0.66154      0.78385      0
C1072    C     0.23216      0.7064       0.79764      0
C1073    C     0.20208      0.67206      0.81267      0
C1074    C     0.35275      0.81798      0.81017      0
C1075    C     0.31763      0.78918      0.82521      0
C1076    C     0.36347      0.82625      0.83899      0
C1077    C     0.32806      0.79802      0.85403      0
C1078    C     0.49632      0.91         0.85152      0
C1079    C     0.45893      0.88978      0.86656      0
C1080    C     0.50755      0.91558      0.88034      0
C1081    C     0.47013      0.8961       0.89538      0
C1082    C     0.64024      0.96366      0.89287      0
C1083    C     0.60406      0.9539       0.90791      0
C1084    C     0.65093      0.96603      0.9217       0
C1085    C     0.61499      0.95713      0.93673      0
C1086    C     0.77103      0.97394      0.93423      0
C1087    C     0.73946      0.97556      0.94927      0
C1088    C     0.78019      0.97288      0.96305      0
C1089    C     0.74909      0.97538      0.97809      0
C1090    C     0.87647      0.93988      0.97558      0
C1091    C     0.85245      0.95273      0.99062      0
C1092    C     0.97052      0.67543      0.28886      0
C1093    C     0.9745       0.70965      0.3039       0
C1094    C     0.96876      0.66494      0.31769      0
C1095    C     0.97361      0.69951      0.33272      0
C1096    C     0.92763      0.53361      0.33022      0
C1097    C     0.94267      0.57082      0.34526      0
C1098    C     0.92259      0.5224       0.35904      0
C1099    C     0.93844      0.55969      0.37408      0
C1100    C     0.84473      0.38865      0.37157      0
C1101    C     0.86943      0.42536      0.38661      0
C1102    C     0.83689      0.37776      0.40039      0
C1103    C     0.86225      0.41429      0.41543      0
C1104    C     0.72958      0.2541       0.41293      0
C1105    C     0.76162      0.28688      0.42796      0
C1106    C     0.71967      0.24456      0.44175      0
C1107    C     0.75217      0.2769       0.45678      0
C1108    C     0.59295      0.14256      0.45428      0
C1109    C     0.62934      0.16834      0.46932      0
C1110    C     0.5819       0.13525      0.4831       0
C1111    C     0.6185       0.16039      0.49814      0
C1112    C     0.44762      0.06446      0.49563      0
C1113    C     0.48496      0.08083      0.51067      0
C1114    C     0.43647      0.06008      0.52445      0
C1115    C     0.47374      0.07565      0.53949      0
C1116    C     0.3072       0.02711      0.53699      0
C1117    C     0.34199      0.03254      0.55202      0
C1118    C     0.29698      0.02605      0.56581      0
C1119    C     0.33144      0.03061      0.58084      0
C1120    C     0.18481      0.034        0.57834      0
C1121    C     0.2138       0.02798      0.59338      0
C1122    C     0.17649      0.03637      0.60716      0
C1123    C     0.20491      0.02948      0.6222       0
C1124    C     0.09191      0.08449      0.61969      0
C1125    C     0.11238      0.06758      0.63473      0
C1126    C     0.08626      0.09006      0.64851      0
C1127    C     0.10598      0.07237      0.66355      0
C1128    C     0.03719      0.17384      0.66105      0
C1129    C     0.04723      0.14763      0.67608      0
C1130    C     0.03474      0.18211      0.68987      0
C1131    C     0.04392      0.15527      0.7049       0
C1132    C     0.02577      0.29372      0.7024       0
C1133    C     0.02444      0.26065      0.71744      0
C1134    C     0.02674      0.30389      0.73122      0
C1135    C     0.02453      0.27042      0.74626      0
C1136    C     0.05871      0.43289      0.74375      0
C1137    C     0.04614      0.39606      0.75879      0
C1138    C     0.06302      0.44403      0.77257      0
C1139    C     0.04962      0.40705      0.78761      0
C1140    C     0.13294      0.57834      0.78511      0
C1141    C     0.1103       0.5412       0.80014      0
C1142    C     0.14019      0.58939      0.81393      0
C1143    C     0.11684      0.55238      0.82897      0
C1144    C     0.24151      0.71646      0.82646      0
C1145    C     0.21092      0.68248      0.8415       0
C1146    C     0.25101      0.7264       0.85528      0
C1147    C     0.21991      0.6928       0.87032      0
C1148    C     0.37426      0.83433      0.86781      0
C1149    C     0.33858      0.80669      0.88285      0
C1150    C     0.38513      0.84222      0.89663      0
C1151    C     0.34919      0.81519      0.91167      0
C1152    C     0.51878      0.92092      0.90917      0
C1153    C     0.48135      0.90221      0.9242       0
C1154    C     0.53         0.92603      0.93799      0
C1155    C     0.49257      0.90809      0.95303      0
C1156    C     0.66154      0.96813      0.95052      0
C1157    C     0.62586      0.9601       0.96556      0
C1158    C     0.67206      0.96998      0.97934      0
C1159    C     0.63665      0.96281      0.99438      0
C1160    C     0.78918      0.97155      0.99187      0
C1161    C     0.96673      0.65436      0.34651      0
C1162    C     0.97246      0.68926      0.36155      0
C1163    C     0.96445      0.64369      0.37533      0
C1164    C     0.97105      0.6789       0.39037      0
C1165    C     0.91732      0.51117      0.38786      0
C1166    C     0.93397      0.54853      0.4029       0
C1167    C     0.91182      0.49994      0.41668      0
C1168    C     0.92925      0.53734      0.43172      0
C1169    C     0.82887      0.36694      0.42922      0
C1170    C     0.85487      0.40326      0.44425      0
C1171    C     0.82067      0.35619      0.45804      0
C1172    C     0.8473       0.39229      0.47308      0
C1173    C     0.70965      0.23515      0.47057      0
C1174    C     0.74258      0.26704      0.48561      0
C1175    C     0.69951      0.2259       0.49939      0
C1176    C     0.73285      0.25732      0.51443      0
C1177    C     0.57082      0.12815      0.51192      0
C1178    C     0.60759      0.15262      0.52696      0
C1179    C     0.55969      0.12125      0.54074      0
C1180    C     0.59662      0.14504      0.55578      0
C1181    C     0.42536      0.05593      0.55328      0
C1182    C     0.46253      0.07069      0.56831      0
C1183    C     0.41429      0.05204      0.5821       0
C1184    C     0.45134      0.06598      0.59714      0
C1185    C     0.28688      0.02526      0.59463      0
C1186    C     0.32098      0.02893      0.60967      0
C1187    C     0.2769       0.02473      0.62345      0
C1188    C     0.31063      0.02752      0.63849      0
C1189    C     0.16834      0.039        0.63598      0
C1190    C     0.19618      0.03124      0.65102      0
C1191    C     0.16039      0.04189      0.6648       0
C1192    C     0.18762      0.03327      0.67984      0
C1193    C     0.08083      0.09587      0.67734      0
C1194    C     0.0998       0.07741      0.69237      0
C1195    C     0.07565      0.10191      0.70616      0
C1196    C     0.09385      0.08268      0.7212       0
C1197    C     0.03254      0.19055      0.71869      0
C1198    C     0.04087      0.16311      0.73373      0
C1199    C     0.03061      0.19917      0.74751      0
C1200    C     0.03807      0.17113      0.76255      0
C1201    C     0.02798      0.31418      0.76004      0
C1202    C     0.02488      0.28033      0.77508      0
C1203    C     0.02948      0.32457      0.78886      0
C1204    C     0.0255       0.29035      0.8039       0
C1205    C     0.06758      0.4552       0.8014       0
C1206    C     0.05335      0.4181       0.81643      0
C1207    C     0.07237      0.46639      0.83022      0
C1208    C     0.05733      0.42918      0.84526      0
C1209    C     0.14763      0.6004       0.84275      0
C1210    C     0.1236       0.56353      0.85779      0
C1211    C     0.15527      0.61135      0.87157      0
C1212    C     0.13057      0.57464      0.88661      0
C1213    C     0.26065      0.73621      0.8841       0
C1214    C     0.22907      0.70302      0.89914      0
C1215    C     0.27042      0.7459       0.91293      0
C1216    C     0.23838      0.71312      0.92796      0
C1217    C     0.39606      0.84993      0.92546      0
C1218    C     0.35988      0.82351      0.94049      0
C1219    C     0.40705      0.85744      0.95428      0
C1220    C     0.37066      0.83166      0.96932      0
C1221    C     0.5412       0.9309       0.96681      0
C1222    C     0.50381      0.91374      0.98185      0
C1223    C     0.55238      0.93554      0.99563      0
C1224    C     0.9619       0.63294      0.40415      0
C1225    C     0.96937      0.66844      0.41919      0
C1226    C     0.9591       0.62212      0.43298      0
C1227    C     0.96744      0.65789      0.44801      0
C1228    C     0.90609      0.4887       0.44551      0
C1229    C     0.9243       0.52614      0.46054      0
C1230    C     0.90013      0.47748      0.47433      0
C1231    C     0.91911      0.51491      0.48937      0
C1232    C     0.81228      0.34552      0.48686      0
C1233    C     0.83953      0.38138      0.5019       0
C1234    C     0.80372      0.33494      0.51568      0
C1235    C     0.83157      0.37054      0.53072      0
C1236    C     0.68926      0.2168       0.52821      0
C1237    C     0.72299      0.24772      0.54325      0
C1238    C     0.6789       0.20785      0.55704      0
C1239    C     0.71301      0.23827      0.57207      0
C1240    C     0.54853      0.11456      0.56957      0
C1241    C     0.58559      0.13767      0.5846       0
C1242    C     0.53734      0.10809      0.59839      0
C1243    C     0.57452      0.13049      0.61343      0
C1244    C     0.40326      0.04839      0.61092      0
C1245    C     0.44018      0.06151      0.62596      0
C1246    C     0.39229      0.045        0.63974      0
C1247    C     0.42906      0.05729      0.65478      0
C1248    C     0.26704      0.02447      0.65227      0
C1249    C     0.30038      0.02638      0.66731      0
C1250    C     0.25732      0.02447      0.6811       0
C1251    C     0.29024      0.02549      0.69613      0
C1252    C     0.15262      0.04503      0.69363      0
C1253    C     0.17924      0.03555      0.70866      0
C1254    C     0.14504      0.04843      0.72245      0
C1255    C     0.17104      0.0381       0.73749      0
C1256    C     0.07069      0.10816      0.73498      0
C1257    C     0.08812      0.08818      0.75002      0
C1258    C     0.06598      0.11464      0.7638       0
C1259    C     0.08262      0.09391      0.77884      0
C1260    C     0.02893      0.20795      0.77633      0
C1261    C     0.03553      0.17933      0.79137      0
C1262    C     0.02752      0.2169       0.80516      0
C1263    C     0.03324      0.18772      0.82019      0
C1264    C     0.03124      0.33506      0.81769      0
C1265    C     0.02639      0.30049      0.83272      0
C1266    C     0.03327      0.34564      0.84651      0
C1267    C     0.02754      0.31074      0.86155      0
C1268    C     0.07741      0.4776       0.85904      0
C1269    C     0.06156      0.44031      0.87408      0
C1270    C     0.08268      0.48883      0.88786      0
C1271    C     0.06603      0.45147      0.9029       0
C1272    C     0.16311      0.62224      0.90039      0
C1273    C     0.13775      0.58571      0.91543      0
C1274    C     0.17113      0.63306      0.92922      0
C1275    C     0.14513      0.59674      0.94425      0
C1276    C     0.28033      0.75544      0.94175      0
C1277    C     0.24783      0.7231       0.95678      0
C1278    C     0.29035      0.76485      0.97057      0
C1279    C     0.25742      0.73296      0.98561      0
C1280    C     0.4181       0.86475      0.9831       0
C1281    C     0.3815       0.83961      0.99814      0
C1282    C     0.97556      0.73611      0.44927      0
C1283    C     0.95604      0.61123      0.4618       0
C1284    C     0.96524      0.64725      0.47683      0
C1285    C     0.95273      0.60028      0.49062      0
C1286    C     0.96278      0.63653      0.50566      0
C1287    C     0.89395      0.46627      0.50315      0
C1288    C     0.91368      0.50368      0.51819      0
C1289    C     0.88755      0.45507      0.53197      0
C1290    C     0.90802      0.49245      0.54701      0
C1291    C     0.795        0.32446      0.5445       0
C1292    C     0.82342      0.35976      0.55954      0
C1293    C     0.7861       0.31407      0.57333      0
C1294    C     0.8151       0.34907      0.58836      0
C1295    C     0.66844      0.19907      0.58586      0
C1296    C     0.7029       0.22897      0.60089      0
C1297    C     0.65789      0.19046      0.61468      0
C1298    C     0.69269      0.21981      0.62972      0
C1299    C     0.52614      0.10184      0.62721      0
C1300    C     0.5634       0.12353      0.64225      0
C1301    C     0.51491      0.09581      0.65603      0
C1302    C     0.55225      0.11677      0.67107      0
C1303    C     0.38138      0.04186      0.66856      0
C1304    C     0.41797      0.05331      0.6836       0
C1305    C     0.37054      0.03897      0.69739      0
C1306    C     0.40693      0.04958      0.71242      0
C1307    C     0.24772      0.02473      0.70992      0
C1308    C     0.28021      0.02488      0.72496      0
C1309    C     0.23827      0.02527      0.73874      0
C1310    C     0.27031      0.02452      0.75378      0
C1311    C     0.13767      0.05208      0.75127      0
C1312    C     0.16302      0.0409       0.76631      0
C1313    C     0.13049      0.05598      0.78009      0
C1314    C     0.15519      0.04396      0.79513      0
C1315    C     0.06151      0.12133      0.79262      0
C1316    C     0.07735      0.09987      0.80766      0
C1317    C     0.05729      0.12823      0.82145      0
C1318    C     0.07232      0.10605      0.83648      0
C1319    C     0.02638      0.226        0.83398      0
C1320    C     0.03122      0.19628      0.84902      0
C1321    C     0.02549      0.23526      0.8628       0
C1322    C     0.02946      0.205        0.87784      0
C1323    C     0.03555      0.35631      0.87533      0
C1324    C     0.02895      0.3211       0.89037      0
C1325    C     0.0381       0.36706      0.90415      0
C1326    C     0.03063      0.33156      0.91919      0
C1327    C     0.08818      0.50006      0.91668      0
C1328    C     0.07075      0.46266      0.93172      0
C1329    C     0.09391      0.5113       0.94551      0
C1330    C     0.0757       0.47386      0.96054      0
C1331    C     0.17933      0.64381      0.95804      0
C1332    C     0.1527       0.60771      0.97308      0
C1333    C     0.18772      0.65448      0.98686      0
C1334    C     0.30049      0.7741       0.99939      0
C1335    C     0.97538      0.72629      0.47809      0
C1336    C     0.97494      0.71635      0.50691      0
C1337    C     0.94917      0.58927      0.51944      0
C1338    C     0.96006      0.62574      0.53448      0
C1339    C     0.94535      0.57821      0.54826      0
C1340    C     0.95709      0.61487      0.5633       0
C1341    C     0.88093      0.4439       0.56079      0
C1342    C     0.90214      0.48122      0.57583      0
C1343    C     0.8741       0.43276      0.58962      0
C1344    C     0.89603      0.47         0.60465      0
C1345    C     0.77705      0.30378      0.60215      0
C1346    C     0.8066       0.33846      0.61719      0
C1347    C     0.76784      0.2936       0.63097      0
C1348    C     0.79792      0.32794      0.64601      0
C1349    C     0.64725      0.18202      0.6435       0
C1350    C     0.68237      0.21082      0.65854      0
C1351    C     0.63653      0.17375      0.67232      0
C1352    C     0.67194      0.20198      0.68736      0
C1353    C     0.50368      0.09         0.68485      0
C1354    C     0.54107      0.11022      0.69989      0
C1355    C     0.49245      0.08442      0.71368      0
C1356    C     0.52987      0.1039       0.72871      0
C1357    C     0.35976      0.03634      0.72621      0
C1358    C     0.39594      0.0461       0.74125      0
C1359    C     0.34907      0.03397      0.75503      0
C1360    C     0.38501      0.04287      0.77007      0
C1361    C     0.22897      0.02606      0.76756      0
C1362    C     0.26054      0.02444      0.7826       0
C1363    C     0.21981      0.02712      0.79638      0
C1364    C     0.25091      0.02462      0.81142      0
C1365    C     0.12353      0.06012      0.80892      0
C1366    C     0.14755      0.04727      0.82395      0
C1367    C     0.11677      0.06451      0.83774      0
C1368    C     0.1401       0.05083      0.85277      0
C1369    C     0.05331      0.13533      0.85027      0
C1370    C     0.06753      0.11245      0.86531      0
C1371    C     0.04958      0.14265      0.87909      0
C1372    C     0.06297      0.11907      0.89413      0
C1373    C     0.02488      0.24466      0.89162      0
C1374    C     0.02796      0.2139       0.90666      0
C1375    C     0.02452      0.25421      0.92044      0
C1376    C     0.02673      0.22295      0.93548      0
C1377    C     0.0409       0.37788      0.93298      0
C1378    C     0.03256      0.34211      0.94801      0
C1379    C     0.04396      0.38877      0.9618       0
C1380    C     0.03476      0.35275      0.97683      0
C1381    C     0.09987      0.52252      0.97433      0
C1382    C     0.08089      0.48509      0.98937      0
C1383    C     0.97423      0.70628      0.53573      0
C1384    C     0.97326      0.69611      0.56455      0
C1385    C     0.97547      0.72958      0.57959      0
C1386    C     0.94129      0.56711      0.57709      0
C1387    C     0.95386      0.60394      0.59212      0
C1388    C     0.93698      0.55597      0.60591      0
C1389    C     0.95038      0.59295      0.62095      0
C1390    C     0.86706      0.42166      0.61844      0
C1391    C     0.8897       0.4588       0.63348      0
C1392    C     0.85981      0.41061      0.64726      0
C1393    C     0.88316      0.44762      0.6623       0
C1394    C     0.75849      0.28354      0.65979      0
C1395    C     0.78908      0.31752      0.67483      0
C1396    C     0.74899      0.2736       0.68861      0
C1397    C     0.78009      0.3072       0.70365      0
C1398    C     0.62574      0.16567      0.70115      0
C1399    C     0.66142      0.19331      0.71618      0
C1400    C     0.61487      0.15778      0.72997      0
C1401    C     0.65081      0.18481      0.74501      0
C1402    C     0.48122      0.07908      0.7425       0
C1403    C     0.51865      0.09779      0.75754      0
C1404    C     0.47         0.07397      0.77132      0
C1405    C     0.50743      0.09191      0.78636      0
C1406    C     0.33846      0.03187      0.78385      0
C1407    C     0.37414      0.0399       0.79889      0
C1408    C     0.32794      0.03002      0.81267      0
C1409    C     0.36335      0.03719      0.82771      0
C1410    C     0.21082      0.02845      0.82521      0
C1411    C     0.24141      0.02506      0.84024      0
C1412    C     0.20198      0.03004      0.85403      0
C1413    C     0.23205      0.02577      0.86907      0
C1414    C     0.11022      0.06915      0.86656      0
C1415    C     0.13286      0.05465      0.8816       0
C1416    C     0.1039       0.07402      0.89538      0
C1417    C     0.12583      0.05871      0.91042      0
C1418    C     0.0461       0.15016      0.90791      0
C1419    C     0.05867      0.1259       0.92295      0
C1420    C     0.04287      0.15786      0.93673      0
C1421    C     0.05461      0.13294      0.95177      0
C1422    C     0.02444      0.26389      0.94927      0
C1423    C     0.02576      0.23216      0.9643       0
C1424    C     0.02462      0.27371      0.97809      0
C1425    C     0.02505      0.24151      0.99313      0
C1426    C     0.04727      0.39972      0.99062      0
C1427    C     0.97202      0.68582      0.59338      0
C1428    C     0.97512      0.71967      0.60841      0
C1429    C     0.97052      0.67543      0.6222       0
C1430    C     0.9745       0.70965      0.63724      0
C1431    C     0.93242      0.5448       0.63473      0
C1432    C     0.94665      0.5819       0.64977      0
C1433    C     0.92763      0.53361      0.66355      0
C1434    C     0.94267      0.57082      0.67859      0
C1435    C     0.85237      0.3996       0.67608      0
C1436    C     0.8764       0.43647      0.69112      0
C1437    C     0.84473      0.38865      0.7049       0
C1438    C     0.86943      0.42536      0.71994      0
C1439    C     0.73935      0.26379      0.71744      0
C1440    C     0.77093      0.29698      0.73247      0
C1441    C     0.72958      0.2541       0.74626      0
C1442    C     0.76162      0.28688      0.7613       0
C1443    C     0.60394      0.15007      0.75879      0
C1444    C     0.64012      0.17649      0.77383      0
C1445    C     0.59295      0.14256      0.78761      0
C1446    C     0.62934      0.16834      0.80265      0
C1447    C     0.4588       0.0691       0.80014      0
C1448    C     0.49619      0.08626      0.81518      0
C1449    C     0.44762      0.06446      0.82897      0
C1450    C     0.48496      0.08083      0.844        0
C1451    C     0.31752      0.02843      0.8415       0
C1452    C     0.35263      0.03474      0.85653      0
C1453    C     0.3072       0.02711      0.87032      0
C1454    C     0.34199      0.03254      0.88536      0
C1455    C     0.19331      0.03189      0.88285      0
C1456    C     0.22285      0.02674      0.89789      0
C1457    C     0.18481      0.034        0.91167      0
C1458    C     0.2138       0.02798      0.92671      0
C1459    C     0.09779      0.07914      0.9242       0
C1460    C     0.119        0.06302      0.93924      0
C1461    C     0.09191      0.08449      0.95303      0
C1462    C     0.11238      0.06758      0.96806      0
C1463    C     0.0399       0.16576      0.96556      0
C1464    C     0.05079      0.14019      0.98059      0
C1465    C     0.03719      0.17384      0.99438      0
C1466    C     0.96876      0.66494      0.65102      0
C1467    C     0.97361      0.69951      0.66606      0
C1468    C     0.96673      0.65436      0.67984      0
C1469    C     0.97246      0.68926      0.69488      0
C1470    C     0.92259      0.5224       0.69237      0
C1471    C     0.93844      0.55969      0.70741      0
C1472    C     0.91732      0.51117      0.7212       0
C1473    C     0.93397      0.54853      0.73623      0
C1474    C     0.83689      0.37776      0.73373      0
C1475    C     0.86225      0.41429      0.74876      0
C1476    C     0.82887      0.36694      0.76255      0
C1477    C     0.85487      0.40326      0.77759      0
C1478    C     0.71967      0.24456      0.77508      0
C1479    C     0.75217      0.2769       0.79012      0
C1480    C     0.70965      0.23515      0.8039       0
C1481    C     0.74258      0.26704      0.81894      0
C1482    C     0.5819       0.13525      0.81643      0
C1483    C     0.6185       0.16039      0.83147      0
C1484    C     0.57082      0.12815      0.84526      0
C1485    C     0.60759      0.15262      0.86029      0
C1486    C     0.43647      0.06008      0.85779      0
C1487    C     0.47374      0.07565      0.87282      0
C1488    C     0.42536      0.05593      0.88661      0
C1489    C     0.46253      0.07069      0.90165      0
C1490    C     0.29698      0.02605      0.89914      0
C1491    C     0.33144      0.03061      0.91418      0
C1492    C     0.28688      0.02526      0.92796      0
C1493    C     0.32098      0.02893      0.943        0
C1494    C     0.17649      0.03637      0.94049      0
C1495    C     0.20491      0.02948      0.95553      0
C1496    C     0.16834      0.039        0.96932      0
C1497    C     0.19618      0.03124      0.98435      0
C1498    C     0.08626      0.09006      0.98185      0
C1499    C     0.10598      0.07237      0.99688      0
C1500    C     0.96445      0.64369      0.70866      0
C1501    C     0.97105      0.6789       0.7237       0
C1502    C     0.9619       0.63294      0.73749      0
C1503    C     0.96937      0.66844      0.75252      0
C1504    C     0.91182      0.49994      0.75002      0
C1505    C     0.92925      0.53734      0.76506      0
C1506    C     0.90609      0.4887       0.77884      0
C1507    C     0.9243       0.52614      0.79388      0
C1508    C     0.82067      0.35619      0.79137      0
C1509    C     0.8473       0.39229      0.80641      0
C1510    C     0.81228      0.34552      0.82019      0
C1511    C     0.83953      0.38138      0.83523      0
C1512    C     0.69951      0.2259       0.83272      0
C1513    C     0.73285      0.25732      0.84776      0
C1514    C     0.68926      0.2168       0.86155      0
C1515    C     0.72299      0.24772      0.87658      0
C1516    C     0.55969      0.12125      0.87408      0
C1517    C     0.59662      0.14504      0.88912      0
C1518    C     0.54853      0.11456      0.9029       0
C1519    C     0.58559      0.13767      0.91794      0
C1520    C     0.41429      0.05204      0.91543      0
C1521    C     0.45134      0.06598      0.93047      0
C1522    C     0.40326      0.04839      0.94425      0
C1523    C     0.44018      0.06151      0.95929      0
C1524    C     0.2769       0.02473      0.95678      0
C1525    C     0.31063      0.02752      0.97182      0
C1526    C     0.26704      0.02447      0.98561      0
C1527    C     0.16039      0.04189      0.99814      0
C1528    C     0.9591       0.62212      0.76631      0
C1529    C     0.96744      0.65789      0.78135      0
C1530    C     0.95604      0.61123      0.79513      0
C1531    C     0.96524      0.64725      0.81017      0
C1532    C     0.90013      0.47748      0.80766      0
C1533    C     0.91911      0.51491      0.8227       0
C1534    C     0.89395      0.46627      0.83648      0
C1535    C     0.91368      0.50368      0.85152      0
C1536    C     0.80372      0.33494      0.84902      0
C1537    C     0.83157      0.37054      0.86405      0
C1538    C     0.795        0.32446      0.87784      0
C1539    C     0.82342      0.35976      0.89287      0
C1540    C     0.6789       0.20785      0.89037      0
C1541    C     0.71301      0.23827      0.90541      0
C1542    C     0.66844      0.19907      0.91919      0
C1543    C     0.7029       0.22897      0.93423      0
C1544    C     0.53734      0.10809      0.93172      0
C1545    C     0.57452      0.13049      0.94676      0
C1546    C     0.52614      0.10184      0.96054      0
C1547    C     0.5634       0.12353      0.97558      0
C1548    C     0.39229      0.045        0.97308      0
C1549    C     0.42906      0.05729      0.98811      0
C1550    C     0.97556      0.73611      0.7826       0
C1551    C     0.97538      0.72629      0.81142      0
C1552    C     0.95273      0.60028      0.82395      0
C1553    C     0.96278      0.63653      0.83899      0
C1554    C     0.94917      0.58927      0.85277      0
C1555    C     0.96006      0.62574      0.86781      0
C1556    C     0.88755      0.45507      0.86531      0
C1557    C     0.90802      0.49245      0.88034      0
C1558    C     0.88093      0.4439       0.89413      0
C1559    C     0.90214      0.48122      0.90917      0
C1560    C     0.7861       0.31407      0.90666      0
C1561    C     0.8151       0.34907      0.9217       0
C1562    C     0.77705      0.30378      0.93548      0
C1563    C     0.8066       0.33846      0.95052      0
C1564    C     0.65789      0.19046      0.94801      0
C1565    C     0.69269      0.21981      0.96305      0
C1566    C     0.64725      0.18202      0.97683      0
C1567    C     0.68237      0.21082      0.99187      0
C1568    C     0.51491      0.09581      0.98937      0
C1569    C     0.97494      0.71635      0.84024      0
C1570    C     0.97423      0.70628      0.86907      0
C1571    C     0.94535      0.57821      0.8816       0
C1572    C     0.95709      0.61487      0.89663      0
C1573    C     0.94129      0.56711      0.91042      0
C1574    C     0.95386      0.60394      0.92546      0
C1575    C     0.8741       0.43276      0.92295      0
C1576    C     0.89603      0.47         0.93799      0
C1577    C     0.86706      0.42166      0.95177      0
C1578    C     0.8897       0.4588       0.96681      0
C1579    C     0.76784      0.2936       0.9643       0
C1580    C     0.79792      0.32794      0.97934      0
C1581    C     0.75849      0.28354      0.99313      0
C1582    C     0.97326      0.69611      0.89789      0
C1583    C     0.97547      0.72958      0.91293      0
C1584    C     0.97202      0.68582      0.92671      0
C1585    C     0.97512      0.71967      0.94175      0
C1586    C     0.93698      0.55597      0.93924      0
C1587    C     0.95038      0.59295      0.95428      0
C1588    C     0.93242      0.5448       0.96806      0
C1589    C     0.94665      0.5819       0.9831       0
C1590    C     0.85981      0.41061      0.98059      0
C1591    C     0.88316      0.44762      0.99563      0
C1592    C     0.97052      0.67543      0.95553      0
C1593    C     0.9745       0.70965      0.97057      0
C1594    C     0.96876      0.66494      0.98435      0
C1595    C     0.97361      0.69951      0.99939      0
C1596    C     0.92763      0.53361      0.99688      0


