data_SWNT-1-14

_audit_creation_method RASPA-1.0
_audit_creation_date 2012-1-22
_audit_author_name 'David Dubbeldam'

_cell_length_a    14.7191
_cell_length_b    14.7191
_cell_length_c    61.8801
_cell_angle_alpha 90
_cell_angle_beta  90
_cell_angle_gamma 120
_cell_volume      11610.3

_symmetry_cell_setting          triclinic
_symmetry_space_group_name_Hall 'P 1'
_symmetry_space_group_name_H-M  'P 1'
_symmetry_Int_Tables_number     1

_symmetry_equiv_pos_as_xyz 'x,y,z'

loop_
_atom_site_label
_atom_site_type_symbol
_atom_site_fract_x
_atom_site_fract_y
_atom_site_fract_z
_atom_site_charge
C1       C     0.89414      0.87796      0.00617      0
C2       C     0.94538      0.74414      0.00854      0
C3       C     0.5973       0.92565      0.00143      0
C4       C     0.77055      0.94241      0.0038       0
C5       C     0.83809      0.92104      0.01644      0
C6       C     0.83372      0.92319      0.03934      0
C7       C     0.92883      0.82076      0.01881      0
C8       C     0.92696      0.82534      0.04171      0
C9       C     0.94444      0.75514      0.05435      0
C10      C     0.94383      0.76056      0.07726      0
C11      C     0.49847      0.88554      0.0117       0
C12      C     0.49183      0.88215      0.0346       0
C13      C     0.68528      0.94404      0.01407      0
C14      C     0.67922      0.94336      0.03697      0
C15      C     0.75987      0.94391      0.04961      0
C16      C     0.75444      0.94451      0.07252      0
C17      C     0.88774      0.88485      0.05198      0
C18      C     0.88442      0.88816      0.07489      0
C19      C     0.92292      0.83428      0.08753      0
C20      C     0.92076      0.83864      0.11043      0
C21      C     0.15992      0.57995      0.00696      0
C22      C     0.15566      0.5734       0.02986      0
C23      C     0.31194      0.75626      0.00933      0
C24      C     0.30593      0.7508       0.03223      0
C25      C     0.39325      0.8217       0.04487      0
C26      C     0.38681      0.81707      0.06778      0
C27      C     0.5843       0.92149      0.04724      0
C28      C     0.57777      0.91927      0.07015      0
C29      C     0.66698      0.94171      0.08279      0
C30      C     0.6608       0.94073      0.10569      0
C31      C     0.82476      0.9272       0.08516      0
C32      C     0.82017      0.92906      0.10806      0
C33      C     0.87751      0.89454      0.1207       0
C34      C     0.87393      0.89759      0.14361      0
C35      C     0.9423       0.77123      0.12307      0
C36      C     0.94139      0.77647      0.14598      0
C37      C     0.05962      0.21835      0.00222      0
C38      C     0.06072      0.21323      0.02512      0
C39      C     0.07034      0.38896      0.00459      0
C40      C     0.0686       0.38254      0.02749      0
C41      C     0.10141      0.47413      0.04013      0
C42      C     0.09847      0.4675       0.06304      0
C43      C     0.2218       0.66286      0.0425       0
C44      C     0.21664      0.65666      0.06541      0
C45      C     0.29406      0.7397       0.07805      0
C46      C     0.28819      0.73407      0.10095      0
C47      C     0.47855      0.87513      0.08042      0
C48      C     0.47192      0.8715       0.10332      0
C49      C     0.56465      0.91455      0.11596      0
C50      C     0.55808      0.91205      0.13887      0
C51      C     0.74342      0.94542      0.11833      0
C52      C     0.73783      0.94573      0.14124      0
C53      C     0.81078      0.93251      0.15388      0
C54      C     0.80598      0.93408      0.17678      0
C55      C     0.91617      0.84713      0.15625      0
C56      C     0.91373      0.85127      0.17915      0
C57      C     0.93928      0.78677      0.19179      0
C58      C     0.93808      0.79182      0.2147       0
C59      C     0.27351      0.05395      0.02039      0
C60      C     0.13348      0.09657      0.02275      0
C61      C     0.0888       0.14468      0.03539      0
C62      C     0.09142      0.1407       0.0583       0
C63      C     0.05419      0.29014      0.03776      0
C64      C     0.05401      0.28431      0.06067      0
C65      C     0.06541      0.36978      0.07331      0
C66      C     0.06396      0.36344      0.09621      0
C67      C     0.14737      0.56027      0.07568      0
C68      C     0.14335      0.55368      0.09858      0
C69      C     0.20651      0.64416      0.11122      0
C70      C     0.20154      0.63786      0.13413      0
C71      C     0.37402      0.80759      0.11359      0
C72      C     0.36766      0.80274      0.1365       0
C73      C     0.45868      0.86398      0.14914      0
C74      C     0.45207      0.8601       0.17204      0
C75      C     0.64834      0.93849      0.15151      0
C76      C     0.64206      0.93722      0.17441      0
C77      C     0.72649      0.94605      0.18705      0
C78      C     0.72074      0.94606      0.20996      0
C79      C     0.86652      0.90343      0.18942      0
C80      C     0.8627       0.90622      0.21233      0
C81      C     0.90858      0.8593       0.22497      0
C82      C     0.90587      0.86319      0.24787      0
C83      C     0.64496      0.20715      0.01565      0
C84      C     0.45512      0.09322      0.01802      0
C85      C     0.36425      0.06414      0.03065      0
C86      C     0.37059      0.0656       0.05356      0
C87      C     0.19889      0.06444      0.03302      0
C88      C     0.20382      0.06305      0.05593      0
C89      C     0.14121      0.09108      0.06857      0
C90      C     0.14519      0.08847      0.09148      0
C91      C     0.06322      0.20319      0.07094      0
C92      C     0.06462      0.19826      0.09385      0
C93      C     0.05396      0.27278      0.10648      0
C94      C     0.05408      0.26709      0.12939      0
C95      C     0.09287      0.45427      0.10885      0
C96      C     0.0902       0.44767      0.13176      0
C97      C     0.13553      0.54048      0.1444       0
C98      C     0.13174      0.53386      0.1673       0
C99      C     0.2766       0.72266      0.14677      0
C100     C     0.27088      0.71689      0.16967      0
C101     C     0.35504      0.79285      0.18231      0
C102     C     0.34877      0.78781      0.20522      0
C103     C     0.54488      0.90678      0.18468      0
C104     C     0.53827      0.90401      0.20759      0
C105     C     0.62941      0.9344       0.22023      0
C106     C     0.62304      0.93284      0.24313      0
C107     C     0.79618      0.93695      0.2226       0
C108     C     0.79118      0.93824      0.2455       0
C109     C     0.85481      0.91153      0.25814      0
C110     C     0.85074      0.91405      0.28105      0
C111     C     0.93538      0.80174      0.26051      0
C112     C     0.93389      0.8066       0.28342      0
C113     C     0.94592      0.73291      0.29606      0
C114     C     0.9457       0.73855      0.31896      0
C115     C     0.91487      0.5655       0.01091      0
C116     C     0.8082       0.37483      0.01328      0
C117     C     0.7348       0.28894      0.02591      0
C118     C     0.74042      0.29482      0.04882      0
C119     C     0.55453      0.14386      0.02828      0
C120     C     0.56111      0.14789      0.05119      0
C121     C     0.46835      0.09885      0.06383      0
C122     C     0.47498      0.10179      0.08674      0
C123     C     0.28505      0.05403      0.0662       0
C124     C     0.2909       0.05422      0.08911      0
C125     C     0.21388      0.06057      0.10174      0
C126     C     0.21901      0.05948      0.12465      0
C127     C     0.09693      0.13299      0.10411      0
C128     C     0.09982      0.12926      0.12702      0
C129     C     0.0677       0.18861      0.13966      0
C130     C     0.06939      0.18389      0.16257      0
C131     C     0.06136      0.35086      0.14203      0
C132     C     0.0602       0.34461      0.16494      0
C133     C     0.08513      0.4345       0.17757      0
C134     C     0.08274      0.42794      0.20048      0
C135     C     0.1918       0.62517      0.17994      0
C136     C     0.18703      0.61878      0.20285      0
C137     C     0.25958      0.70518      0.21549      0
C138     C     0.25401      0.69926      0.23839      0
C139     C     0.43889      0.85211      0.21786      0
C140     C     0.43232      0.84799      0.24076      0
C141     C     0.52502      0.89821      0.2534       0
C142     C     0.51839      0.89517      0.27631      0
C143     C     0.7091       0.94578      0.25577      0
C144     C     0.70322      0.9455       0.27868      0
C145     C     0.78099      0.94052      0.29132      0
C146     C     0.7758       0.94151      0.31422      0
C147     C     0.90018      0.87074      0.29369      0
C148     C     0.8972       0.87439      0.31659      0
C149     C     0.93061      0.81611      0.32923      0
C150     C     0.92883      0.82076      0.35214      0
C151     C     0.94086      0.66159      0.02118      0
C152     C     0.94182      0.66777      0.04408      0
C153     C     0.87197      0.47277      0.02354      0
C154     C     0.87559      0.4794       0.04645      0
C155     C     0.81767      0.38764      0.05909      0
C156     C     0.82229      0.39408      0.082        0
C157     C     0.65746      0.21729      0.06146      0
C158     C     0.66366      0.22246      0.08437      0
C159     C     0.57424      0.1562       0.097        0
C160     C     0.58078      0.16047      0.11991      0
C161     C     0.38336      0.06882      0.09937      0
C162     C     0.38978      0.07056      0.12228      0
C163     C     0.30272      0.05489      0.13492      0
C164     C     0.3087       0.05537      0.15783      0
C165     C     0.1534       0.08353      0.13729      0
C166     C     0.15762      0.0812       0.1602       0
C167     C     0.10586      0.12204      0.17283      0
C168     C     0.10902      0.11855      0.19574      0
C169     C     0.05462      0.25586      0.1752       0
C170     C     0.05504      0.25033      0.19811      0
C171     C     0.05818      0.33223      0.21075      0
C172     C     0.05731      0.3261       0.23366      0
C173     C     0.12441      0.5206       0.21312      0
C174     C     0.12087      0.51396      0.23603      0
C175     C     0.17771      0.60592      0.24866      0
C176     C     0.17315      0.59946      0.27157      0
C177     C     0.33634      0.77754      0.25103      0
C178     C     0.33018      0.77231      0.27394      0
C179     C     0.41922      0.83953      0.28658      0
C180     C     0.4127       0.83518      0.30948      0
C181     C     0.61022      0.92944      0.28895      0
C182     C     0.60377      0.92759      0.31185      0
C183     C     0.6913       0.94463      0.32449      0
C184     C     0.68528      0.94404      0.3474       0
C185     C     0.84238      0.9188       0.32686      0
C186     C     0.83809      0.92104      0.34977      0
C187     C     0.89098      0.88145      0.36241      0
C188     C     0.88774      0.88485      0.38531      0
C189     C     0.94496      0.74967      0.36478      0
C190     C     0.94444      0.75514      0.38768      0
C191     C     0.91956      0.5786       0.05672      0
C192     C     0.92177      0.58513      0.07963      0
C193     C     0.88259      0.49268      0.09227      0
C194     C     0.88596      0.49932      0.11517      0
C195     C     0.7515       0.3067       0.09463      0
C196     C     0.75696      0.31271      0.11754      0
C197     C     0.67594      0.23298      0.13018      0
C198     C     0.68202      0.23833      0.15309      0
C199     C     0.48825      0.10796      0.13255      0
C200     C     0.49489      0.11117      0.15546      0
C201     C     0.4027       0.07435      0.16809      0
C202     C     0.40919      0.07638      0.191        0
C203     C     0.22945      0.05759      0.17046      0
C204     C     0.23476      0.05679      0.19337      0
C205     C     0.16628      0.07681      0.20601      0
C206     C     0.17073      0.07476      0.22892      0
C207     C     0.07304      0.17466      0.20838      0
C208     C     0.07501      0.17015      0.23129      0
C209     C     0.05617      0.23944      0.24392      0
C210     C     0.05689      0.23408      0.26683      0
C211     C     0.07823      0.41487      0.24629      0
C212     C     0.07612      0.40836      0.2692       0
C213     C     0.11404      0.50068      0.28184      0
C214     C     0.11075      0.49404      0.30475      0
C215     C     0.24304      0.68729      0.28421      0
C216     C     0.23764      0.68125      0.30712      0
C217     C     0.31798      0.76167      0.31975      0
C218     C     0.31194      0.75626      0.34266      0
C219     C     0.50511      0.88883      0.32212      0
C220     C     0.49847      0.88554      0.34503      0
C221     C     0.59081      0.92362      0.35767      0
C222     C     0.5843       0.92149      0.38057      0
C223     C     0.76524      0.94321      0.36004      0
C224     C     0.75987      0.94391      0.38294      0
C225     C     0.82927      0.92524      0.39558      0
C226     C     0.82476      0.9272       0.41849      0
C227     C     0.92499      0.82985      0.39795      0
C228     C     0.92292      0.83428      0.42086      0
C229     C     0.94311      0.76592      0.4335       0
C230     C     0.9423       0.77123      0.4564       0
C231     C     0.94346      0.68         0.0899       0
C232     C     0.94412      0.68605      0.1128       0
C233     C     0.92591      0.59813      0.12544      0
C234     C     0.92783      0.6046       0.14835      0
C235     C     0.83133      0.40702      0.12781      0
C236     C     0.83574      0.41353      0.15072      0
C237     C     0.7677       0.32484      0.16336      0
C238     C     0.77298      0.33097      0.18626      0
C239     C     0.59381      0.16924      0.16572      0
C240     C     0.60029      0.17373      0.18863      0
C241     C     0.50817      0.11785      0.20127      0
C242     C     0.51481      0.12132      0.22418      0
C243     C     0.32078      0.05664      0.20364      0
C244     C     0.32688      0.05742      0.22655      0
C245     C     0.24556      0.05549      0.23918      0
C246     C     0.25104      0.05498      0.26209      0
C247     C     0.11558      0.11184      0.24155      0
C248     C     0.11899      0.10861      0.26446      0
C249     C     0.07924      0.16136      0.2771       0
C250     C     0.08149      0.15708      0.30001      0
C251     C     0.05588      0.31395      0.27947      0
C252     C     0.05531      0.30793      0.30238      0
C253     C     0.07217      0.3954       0.31501      0
C254     C     0.07034      0.38896      0.33792      0
C255     C     0.16426      0.58647      0.31738      0
C256     C     0.15992      0.57995      0.34029      0
C257     C     0.22702      0.66903      0.35293      0
C258     C     0.2218       0.66286      0.37584      0
C259     C     0.39971      0.82627      0.3553       0
C260     C     0.39325      0.8217       0.37821      0
C261     C     0.48519      0.87868      0.39084      0
C262     C     0.47855      0.87513      0.41375      0
C263     C     0.67312      0.94258      0.39321      0
C264     C     0.66698      0.94171      0.41612      0
C265     C     0.74896      0.94502      0.42876      0
C266     C     0.74342      0.94542      0.45166      0
C267     C     0.88101      0.89139      0.43113      0
C268     C     0.87751      0.89454      0.45403      0
C269     C     0.91851      0.84292      0.46667      0
C270     C     0.91617      0.84713      0.48958      0
C271     C     0.94516      0.69804      0.15862      0
C272     C     0.94554      0.70397      0.18152      0
C273     C     0.89245      0.5126       0.16099      0
C274     C     0.89556      0.51924      0.18389      0
C275     C     0.84434      0.4266       0.19653      0
C276     C     0.84852      0.43316      0.21944      0
C277     C     0.69407      0.2492       0.1989       0
C278     C     0.70002      0.25472      0.22181      0
C279     C     0.61319      0.18293      0.23445      0
C280     C     0.6196       0.18764      0.25735      0
C281     C     0.42223      0.08073      0.23682      0
C282     C     0.42878      0.08304      0.25972      0
C283     C     0.3392       0.05927      0.27236      0
C284     C     0.34541      0.06034      0.29527      0
C285     C     0.17983      0.07094      0.27473      0
C286     C     0.18449      0.06917      0.29764      0
C287     C     0.12607      0.10241      0.31027      0
C288     C     0.12973      0.09944      0.33318      0
C289     C     0.05861      0.22353      0.31264      0
C290     C     0.05962      0.21835      0.33555      0
C291     C     0.05446      0.29603      0.34819      0
C292     C     0.05419      0.29014      0.3711       0
C293     C     0.10444      0.48076      0.35056      0
C294     C     0.10141      0.47413      0.37347      0
C295     C     0.15148      0.56684      0.3861       0
C296     C     0.14737      0.56027      0.40901      0
C297     C     0.29998      0.74528      0.38847      0
C298     C     0.29406      0.7397       0.41138      0
C299     C     0.3804       0.81236      0.42402      0
C300     C     0.37402      0.80759      0.44693      0
C301     C     0.57122      0.91696      0.42639      0
C302     C     0.56465      0.91455      0.4493       0
C303     C     0.65459      0.93966      0.46193      0
C304     C     0.64834      0.93849      0.48484      0
C305     C     0.81551      0.93083      0.4643       0
C306     C     0.81078      0.93251      0.48721      0
C307     C     0.87027      0.90056      0.49985      0
C308     C     0.86652      0.90343      0.52275      0
C309     C     0.94038      0.78165      0.50222      0
C310     C     0.93928      0.78677      0.52512      0
C311     C     0.9314       0.61746      0.19416      0
C312     C     0.93304      0.62386      0.21707      0
C313     C     0.90153      0.5325       0.22971      0
C314     C     0.90437      0.53912      0.25261      0
C315     C     0.78336      0.34334      0.23208      0
C316     C     0.78846      0.34957      0.25498      0
C317     C     0.71181      0.26593      0.26762      0
C318     C     0.71763      0.27161      0.29053      0
C319     C     0.52808      0.1285       0.26999      0
C320     C     0.5347       0.13222      0.2929       0
C321     C     0.44192      0.08795      0.30554      0
C322     C     0.44852      0.09054      0.32844      0
C323     C     0.26217      0.05427      0.30791      0
C324     C     0.26781      0.05406      0.33081      0
C325     C     0.19402      0.06592      0.34345      0
C326     C     0.19889      0.06444      0.36636      0
C327     C     0.08627      0.14873      0.34582      0
C328     C     0.0888       0.14468      0.36873      0
C329     C     0.06192      0.20818      0.38136      0
C330     C     0.06322      0.20319      0.40427      0
C331     C     0.06696      0.37614      0.38373      0
C332     C     0.06541      0.36978      0.40664      0
C333     C     0.09563      0.46088      0.41928      0
C334     C     0.09287      0.45427      0.44219      0
C335     C     0.21154      0.65043      0.42165      0
C336     C     0.20651      0.64416      0.44456      0
C337     C     0.28237      0.72839      0.45719      0
C338     C     0.2766       0.72266      0.4801       0
C339     C     0.4653       0.86778      0.45956      0
C340     C     0.45868      0.86398      0.48247      0
C341     C     0.55148      0.90946      0.49511      0
C342     C     0.54488      0.90678      0.51802      0
C343     C     0.73219      0.94594      0.49748      0
C344     C     0.72649      0.94605      0.52039      0
C345     C     0.80111      0.93556      0.53302      0
C346     C     0.79618      0.93695      0.55593      0
C347     C     0.9112       0.85532      0.53539      0
C348     C     0.90858      0.8593       0.5583       0
C349     C     0.93678      0.79681      0.57094      0
C350     C     0.93538      0.80174      0.59385      0
C351     C     0.94599      0.71569      0.22734      0
C352     C     0.94606      0.72148      0.25024      0
C353     C     0.93604      0.63656      0.26288      0
C354     C     0.93739      0.64287      0.28579      0
C355     C     0.85665      0.44632      0.26525      0
C356     C     0.8606       0.45292      0.28816      0
C357     C     0.79846      0.36214      0.3008       0
C358     C     0.80337      0.36847      0.3237       0
C359     C     0.63234      0.19726      0.30317      0
C360     C     0.63867      0.20217      0.32607      0
C361     C     0.54793      0.1399       0.33871      0
C362     C     0.55453      0.14386      0.36162      0
C363     C     0.35794      0.06278      0.34108      0
C364     C     0.36425      0.06414      0.36399      0
C365     C     0.27926      0.05394      0.37663      0
C366     C     0.28505      0.05403      0.39953      0
C367     C     0.1373       0.09378      0.379        0
C368     C     0.14121      0.09108      0.4019       0
C369     C     0.09413      0.13681      0.41454      0
C370     C     0.09693      0.13299      0.43745      0
C371     C     0.05394      0.27852      0.41691      0
C372     C     0.05396      0.27278      0.43982      0
C373     C     0.06261      0.35713      0.45245      0
C374     C     0.06136      0.35086      0.47536      0
C375     C     0.1394       0.54708      0.45482      0
C376     C     0.13553      0.54048      0.47773      0
C377     C     0.19663      0.63153      0.49037      0
C378     C     0.1918       0.62517      0.51328      0
C379     C     0.36133      0.79783      0.49274      0
C380     C     0.35504      0.79285      0.51565      0
C381     C     0.44547      0.85614      0.52828      0
C382     C     0.43889      0.85211      0.55119      0
C383     C     0.63575      0.93586      0.53065      0
C384     C     0.62941      0.9344       0.55356      0
C385     C     0.71495      0.94597      0.5662       0
C386     C     0.7091       0.94578      0.58911      0
C387     C     0.85879      0.90892      0.56857      0
C388     C     0.85481      0.91153      0.59148      0
C389     C     0.90307      0.86701      0.60411      0
C390     C     0.90018      0.87074      0.62702      0
C391     C     0.94604      0.72722      0.60648      0
C392     C     0.94592      0.73291      0.62939      0
C393     C     0.9098       0.55233      0.29843      0
C394     C     0.91238      0.55892      0.32133      0
C395     C     0.86826      0.46614      0.33397      0
C396     C     0.87197      0.47277      0.35688      0
C397     C     0.72912      0.28311      0.33634      0
C398     C     0.7348       0.28894      0.35925      0
C399     C     0.65123      0.21219      0.37189      0
C400     C     0.65746      0.21729      0.39479      0
C401     C     0.46173      0.09599      0.37426      0
C402     C     0.46835      0.09885      0.39716      0
C403     C     0.37696      0.06716      0.4098       0
C404     C     0.38336      0.06882      0.43271      0
C405     C     0.20882      0.06176      0.41217      0
C406     C     0.21388      0.06057      0.43508      0
C407     C     0.14926      0.08595      0.44772      0
C408     C     0.1534       0.08353      0.47062      0
C409     C     0.06611      0.1934       0.45009      0
C410     C     0.0677       0.18861      0.47299      0
C411     C     0.0543       0.26145      0.48563      0
C412     C     0.05462      0.25586      0.50854      0
C413     C     0.08762      0.44108      0.488        0
C414     C     0.08513      0.4345       0.51091      0
C415     C     0.12803      0.52723      0.52354      0
C416     C     0.12441      0.5206       0.54645      0
C417     C     0.2652       0.71106      0.52591      0
C418     C     0.25958      0.70518      0.54882      0
C419     C     0.34254      0.78271      0.56146      0
C420     C     0.33634      0.77754      0.58437      0
C421     C     0.53165      0.90115      0.56383      0
C422     C     0.52502      0.89821      0.58674      0
C423     C     0.61664      0.93118      0.59937      0
C424     C     0.61022      0.92944      0.62228      0
C425     C     0.78612      0.93943      0.60174      0
C426     C     0.78099      0.94052      0.62465      0
C427     C     0.8466       0.91647      0.63729      0
C428     C     0.84238      0.9188       0.6602       0
C429     C     0.9323       0.81139      0.63966      0
C430     C     0.93061      0.81611      0.66257      0
C431     C     0.94538      0.74414      0.6752       0
C432     C     0.94496      0.74967      0.69811      0
C433     C     0.9398       0.65539      0.3316       0
C434     C     0.94086      0.66159      0.35451      0
C435     C     0.91726      0.57206      0.36715      0
C436     C     0.91956      0.5786       0.39005      0
C437     C     0.81297      0.38122      0.36952      0
C438     C     0.81767      0.38764      0.39242      0
C439     C     0.74599      0.30074      0.40506      0
C440     C     0.7515       0.3067       0.42797      0
C441     C     0.56768      0.15201      0.40743      0
C442     C     0.57424      0.1562       0.43034      0
C443     C     0.48161      0.10483      0.44298      0
C444     C     0.48825      0.10796      0.46588      0
C445     C     0.29678      0.0545       0.44535      0
C446     C     0.30272      0.05489      0.46825      0
C447     C     0.2242       0.05849      0.48089      0
C448     C     0.22945      0.05759      0.5038       0
C449     C     0.1028       0.12561      0.48326      0
C450     C     0.10586      0.12204      0.50617      0
C451     C     0.07117      0.17924      0.51881      0
C452     C     0.07304      0.17466      0.54171      0
C453     C     0.05914      0.33841      0.52118      0
C454     C     0.05818      0.33223      0.54408      0
C455     C     0.08044      0.4214       0.55672      0
C456     C     0.07823      0.41487      0.57963      0
C457     C     0.18233      0.61236      0.55909      0
C458     C     0.17771      0.60592      0.582        0
C459     C     0.2485       0.6933       0.59463      0
C460     C     0.24304      0.68729      0.61754      0
C461     C     0.42576      0.8438       0.597        0
C462     C     0.41922      0.83953      0.61991      0
C463     C     0.51175      0.89204      0.63255      0
C464     C     0.50511      0.88883      0.65546      0
C465     C     0.69728      0.94511      0.63492      0
C466     C     0.6913       0.94463      0.65783      0
C467     C     0.77055      0.94241      0.67046      0
C468     C     0.76524      0.94321      0.69337      0
C469     C     0.89414      0.87796      0.67283      0
C470     C     0.89098      0.88145      0.69574      0
C471     C     0.92696      0.82534      0.70838      0
C472     C     0.92499      0.82985      0.73129      0
C473     C     0.94269      0.6739       0.40032      0
C474     C     0.94346      0.68         0.42323      0
C475     C     0.87913      0.48604      0.40269      0
C476     C     0.88259      0.49268      0.4256       0
C477     C     0.82685      0.40054      0.43824      0
C478     C     0.83133      0.40702      0.46114      0
C479     C     0.66982      0.22769      0.44061      0
C480     C     0.67594      0.23298      0.46351      0
C481     C     0.5873       0.16482      0.47615      0
C482     C     0.59381      0.16924      0.49906      0
C483     C     0.39623      0.07241      0.47852      0
C484     C     0.4027       0.07435      0.50143      0
C485     C     0.31472      0.05596      0.51407      0
C486     C     0.32078      0.05664      0.53697      0
C487     C     0.16191      0.07896      0.51644      0
C488     C     0.16628      0.07681      0.53934      0
C489     C     0.11226      0.11515      0.55198      0
C490     C     0.11558      0.11184      0.57489      0
C491     C     0.05556      0.24486      0.55435      0
C492     C     0.05617      0.23944      0.57726      0
C493     C     0.05654      0.32         0.5899       0
C494     C     0.05588      0.31395      0.6128       0
C495     C     0.11741      0.50732      0.59227      0
C496     C     0.11404      0.50068      0.61517      0
C497     C     0.16867      0.59298      0.62781      0
C498     C     0.16426      0.58647      0.65072      0
C499     C     0.32406      0.76702      0.63018      0
C500     C     0.31798      0.76167      0.65309      0
C501     C     0.40619      0.83076      0.66572      0
C502     C     0.39971      0.82627      0.68863      0
C503     C     0.5973       0.92565      0.66809      0
C504     C     0.59081      0.92362      0.691        0
C505     C     0.67922      0.94336      0.70364      0
C506     C     0.67312      0.94258      0.72655      0
C507     C     0.83372      0.92319      0.70601      0
C508     C     0.82927      0.92524      0.72892      0
C509     C     0.88442      0.88816      0.74155      0
C510     C     0.88101      0.89139      0.76446      0
C511     C     0.94383      0.76056      0.74392      0
C512     C     0.94311      0.76592      0.76683      0
C513     C     0.92388      0.59164      0.43587      0
C514     C     0.92591      0.59813      0.45877      0
C515     C     0.88925      0.50596      0.47141      0
C516     C     0.89245      0.5126       0.49432      0
C517     C     0.76236      0.31875      0.47378      0
C518     C     0.7677       0.32484      0.49669      0
C519     C     0.68806      0.24374      0.50933      0
C520     C     0.69407      0.2492       0.53223      0
C521     C     0.50153      0.11446      0.5117       0
C522     C     0.50817      0.11785      0.5346       0
C523     C     0.4157       0.07851      0.54724      0
C524     C     0.42223      0.08073      0.57015      0
C525     C     0.24013      0.05609      0.54961      0
C526     C     0.24556      0.05549      0.57252      0
C527     C     0.17524      0.0728       0.58516      0
C528     C     0.17983      0.07094      0.60806      0
C529     C     0.07708      0.16572      0.58753      0
C530     C     0.07924      0.16136      0.61043      0
C531     C     0.0577       0.22877      0.62307      0
C532     C     0.05861      0.22353      0.64598      0
C533     C     0.07409      0.40187      0.62544      0
C534     C     0.07217      0.3954       0.64835      0
C535     C     0.10755      0.4874       0.66099      0
C536     C     0.10444      0.48076      0.68389      0
C537     C     0.2323       0.67516      0.66336      0
C538     C     0.22702      0.66903      0.68626      0
C539     C     0.30593      0.7508       0.6989       0
C540     C     0.29998      0.74528      0.72181      0
C541     C     0.49183      0.88215      0.70127      0
C542     C     0.48519      0.87868      0.72418      0
C543     C     0.57777      0.91927      0.73682      0
C544     C     0.57122      0.91696      0.75972      0
C545     C     0.75444      0.94451      0.73918      0
C546     C     0.74896      0.94502      0.76209      0
C547     C     0.82017      0.92906      0.77473      0
C548     C     0.81551      0.93083      0.79764      0
C549     C     0.92076      0.83864      0.7771       0
C550     C     0.91851      0.84292      0.80001      0
C551     C     0.94139      0.77647      0.81264      0
C552     C     0.94038      0.78165      0.83555      0
C553     C     0.94469      0.69207      0.46904      0
C554     C     0.94516      0.69804      0.49195      0
C555     C     0.92966      0.61104      0.50459      0
C556     C     0.9314       0.61746      0.52749      0
C557     C     0.84008      0.42005      0.50696      0
C558     C     0.84434      0.4266       0.52986      0
C559     C     0.7782       0.33714      0.5425       0
C560     C     0.78336      0.34334      0.56541      0
C561     C     0.60675      0.1783       0.54487      0
C562     C     0.61319      0.18293      0.56778      0
C563     C     0.52145      0.12487      0.58042      0
C564     C     0.52808      0.1285       0.60332      0
C565     C     0.33302      0.05829      0.58279      0
C566     C     0.3392       0.05927      0.60569      0
C567     C     0.25658      0.05458      0.61833      0
C568     C     0.26217      0.05427      0.64124      0
C569     C     0.12249      0.10546      0.6207       0
C570     C     0.12607      0.10241      0.64361      0
C571     C     0.08383      0.15287      0.65625      0
C572     C     0.08627      0.14873      0.67915      0
C573     C     0.05484      0.30196      0.65862      0
C574     C     0.05446      0.29603      0.68152      0
C575     C     0.0686       0.38254      0.69416      0
C576     C     0.06696      0.37614      0.71707      0
C577     C     0.15566      0.5734       0.69653      0
C578     C     0.15148      0.56684      0.71944      0
C579     C     0.21664      0.65666      0.73208      0
C580     C     0.21154      0.65043      0.75498      0
C581     C     0.38681      0.81707      0.73445      0
C582     C     0.3804       0.81236      0.75735      0
C583     C     0.47192      0.8715       0.76999      0
C584     C     0.4653       0.86778      0.7929       0
C585     C     0.6608       0.94073      0.77236      0
C586     C     0.65459      0.93966      0.79527      0
C587     C     0.73783      0.94573      0.80791      0
C588     C     0.73219      0.94594      0.83081      0
C589     C     0.87393      0.89759      0.81027      0
C590     C     0.87027      0.90056      0.83318      0
C591     C     0.91373      0.85127      0.84582      0
C592     C     0.9112       0.85532      0.86873      0
C593     C     0.94581      0.70986      0.53776      0
C594     C     0.94599      0.71569      0.56067      0
C595     C     0.89859      0.52587      0.54013      0
C596     C     0.90153      0.5325       0.56304      0
C597     C     0.85263      0.43973      0.57568      0
C598     C     0.85665      0.44632      0.59858      0
C599     C     0.70594      0.2603       0.57805      0
C600     C     0.71181      0.26593      0.60095      0
C601     C     0.62598      0.19241      0.61359      0
C602     C     0.63234      0.19726      0.6365       0
C603     C     0.43535      0.08545      0.61596      0
C604     C     0.44192      0.08795      0.63887      0
C605     C     0.35166      0.06151      0.65151      0
C606     C     0.35794      0.06278      0.67441      0
C607     C     0.18922      0.06749      0.65388      0
C608     C     0.19402      0.06592      0.67678      0
C609     C     0.13348      0.09657      0.68942      0
C610     C     0.1373       0.09378      0.71233      0
C611     C     0.06072      0.21323      0.69179      0
C612     C     0.06192      0.20818      0.7147       0
C613     C     0.05401      0.28431      0.72734      0
C614     C     0.05394      0.27852      0.75024      0
C615     C     0.09847      0.4675       0.72971      0
C616     C     0.09563      0.46088      0.75261      0
C617     C     0.14335      0.55368      0.76525      0
C618     C     0.1394       0.54708      0.78816      0
C619     C     0.28819      0.73407      0.76762      0
C620     C     0.28237      0.72839      0.79053      0
C621     C     0.36766      0.80274      0.80317      0
C622     C     0.36133      0.79783      0.82607      0
C623     C     0.55808      0.91205      0.80554      0
C624     C     0.55148      0.90946      0.82844      0
C625     C     0.64206      0.93722      0.84108      0
C626     C     0.63575      0.93586      0.86399      0
C627     C     0.80598      0.93408      0.84345      0
C628     C     0.80111      0.93556      0.86636      0
C629     C     0.8627       0.90622      0.879        0
C630     C     0.85879      0.90892      0.9019       0
C631     C     0.93808      0.79182      0.88136      0
C632     C     0.93678      0.79681      0.90427      0
C633     C     0.94604      0.72722      0.93982      0
C634     C     0.93459      0.63022      0.57331      0
C635     C     0.93604      0.63656      0.59621      0
C636     C     0.90713      0.54573      0.60885      0
C637     C     0.9098       0.55233      0.63176      0
C638     C     0.79349      0.35584      0.61122      0
C639     C     0.79846      0.36214      0.63413      0
C640     C     0.7234       0.27734      0.64677      0
C641     C     0.72912      0.28311      0.66967      0
C642     C     0.54132      0.13602      0.64914      0
C643     C     0.54793      0.1399       0.67204      0
C644     C     0.45512      0.09322      0.68468      0
C645     C     0.46173      0.09599      0.70759      0
C646     C     0.27351      0.05395      0.68705      0
C647     C     0.27926      0.05394      0.70996      0
C648     C     0.20382      0.06305      0.7226       0
C649     C     0.20882      0.06176      0.7455       0
C650     C     0.09142      0.1407       0.72497      0
C651     C     0.09413      0.13681      0.74787      0
C652     C     0.06462      0.19826      0.76051      0
C653     C     0.06611      0.1934       0.78342      0
C654     C     0.06396      0.36344      0.76288      0
C655     C     0.06261      0.35713      0.78579      0
C656     C     0.0902       0.44767      0.79843      0
C657     C     0.08762      0.44108      0.82133      0
C658     C     0.20154      0.63786      0.8008       0
C659     C     0.19663      0.63153      0.8237       0
C660     C     0.27088      0.71689      0.83634      0
C661     C     0.2652       0.71106      0.85925      0
C662     C     0.45207      0.8601       0.83871      0
C663     C     0.44547      0.85614      0.86162      0
C664     C     0.53827      0.90401      0.87426      0
C665     C     0.53165      0.90115      0.89716      0
C666     C     0.72074      0.94606      0.87663      0
C667     C     0.71495      0.94597      0.89953      0
C668     C     0.79118      0.93824      0.91217      0
C669     C     0.78612      0.93943      0.93508      0
C670     C     0.90587      0.86319      0.91454      0
C671     C     0.90307      0.86701      0.93745      0
C672     C     0.93389      0.8066       0.95009      0
C673     C     0.9323       0.81139      0.97299      0
C674     C     0.93864      0.64914      0.64203      0
C675     C     0.9398       0.65539      0.66494      0
C676     C     0.86447      0.45952      0.6444       0
C677     C     0.86826      0.46614      0.6673       0
C678     C     0.8082       0.37483      0.67994      0
C679     C     0.81297      0.38122      0.70285      0
C680     C     0.64496      0.20715      0.68231      0
C681     C     0.65123      0.21219      0.70522      0
C682     C     0.56111      0.14789      0.71786      0
C683     C     0.56768      0.15201      0.74076      0
C684     C     0.37059      0.0656       0.72023      0
C685     C     0.37696      0.06716      0.74313      0
C686     C     0.2909       0.05422      0.75577      0
C687     C     0.29678      0.0545       0.77868      0
C688     C     0.14519      0.08847      0.75814      0
C689     C     0.14926      0.08595      0.78105      0
C690     C     0.09982      0.12926      0.79369      0
C691     C     0.1028       0.12561      0.81659      0
C692     C     0.05408      0.26709      0.79606      0
C693     C     0.0543       0.26145      0.81896      0
C694     C     0.0602       0.34461      0.8316       0
C695     C     0.05914      0.33841      0.85451      0
C696     C     0.13174      0.53386      0.83397      0
C697     C     0.12803      0.52723      0.85688      0
C698     C     0.18703      0.61878      0.86952      0
C699     C     0.18233      0.61236      0.89242      0
C700     C     0.34877      0.78781      0.87189      0
C701     C     0.34254      0.78271      0.89479      0
C702     C     0.43232      0.84799      0.90743      0
C703     C     0.42576      0.8438       0.93034      0
C704     C     0.62304      0.93284      0.9098       0
C705     C     0.61664      0.93118      0.93271      0
C706     C     0.70322      0.9455       0.94535      0
C707     C     0.69728      0.94511      0.96825      0
C708     C     0.85074      0.91405      0.94772      0
C709     C     0.8466       0.91647      0.97062      0
C710     C     0.8972       0.87439      0.98326      0
C711     C     0.9457       0.73855      0.98563      0
C712     C     0.91487      0.5655       0.67757      0
C713     C     0.91726      0.57206      0.70048      0
C714     C     0.87559      0.4794       0.71312      0
C715     C     0.87913      0.48604      0.73603      0
C716     C     0.74042      0.29482      0.71549      0
C717     C     0.74599      0.30074      0.73839      0
C718     C     0.66366      0.22246      0.75103      0
C719     C     0.66982      0.22769      0.77394      0
C720     C     0.47498      0.10179      0.7534       0
C721     C     0.48161      0.10483      0.77631      0
C722     C     0.38978      0.07056      0.78895      0
C723     C     0.39623      0.07241      0.81185      0
C724     C     0.21901      0.05948      0.79132      0
C725     C     0.2242       0.05849      0.81422      0
C726     C     0.15762      0.0812       0.82686      0
C727     C     0.16191      0.07896      0.84977      0
C728     C     0.06939      0.18389      0.82923      0
C729     C     0.07117      0.17924      0.85214      0
C730     C     0.05504      0.25033      0.86478      0
C731     C     0.05556      0.24486      0.88768      0
C732     C     0.08274      0.42794      0.86715      0
C733     C     0.08044      0.4214       0.89005      0
C734     C     0.12087      0.51396      0.90269      0
C735     C     0.11741      0.50732      0.9256       0
C736     C     0.25401      0.69926      0.90506      0
C737     C     0.2485       0.6933       0.92797      0
C738     C     0.33018      0.77231      0.94061      0
C739     C     0.32406      0.76702      0.96351      0
C740     C     0.51839      0.89517      0.94298      0
C741     C     0.51175      0.89204      0.96588      0
C742     C     0.60377      0.92759      0.97852      0
C743     C     0.7758       0.94151      0.98089      0
C744     C     0.94182      0.66777      0.71075      0
C745     C     0.94269      0.6739       0.73366      0
C746     C     0.92177      0.58513      0.74629      0
C747     C     0.92388      0.59164      0.7692       0
C748     C     0.82229      0.39408      0.74866      0
C749     C     0.82685      0.40054      0.77157      0
C750     C     0.75696      0.31271      0.78421      0
C751     C     0.76236      0.31875      0.80712      0
C752     C     0.58078      0.16047      0.78658      0
C753     C     0.5873       0.16482      0.80948      0
C754     C     0.49489      0.11117      0.82212      0
C755     C     0.50153      0.11446      0.84503      0
C756     C     0.3087       0.05537      0.82449      0
C757     C     0.31472      0.05596      0.8474       0
C758     C     0.23476      0.05679      0.86004      0
C759     C     0.24013      0.05609      0.88294      0
C760     C     0.10902      0.11855      0.86241      0
C761     C     0.11226      0.11515      0.88531      0
C762     C     0.07501      0.17015      0.89795      0
C763     C     0.07708      0.16572      0.92086      0
C764     C     0.05731      0.3261       0.90032      0
C765     C     0.05654      0.32         0.92323      0
C766     C     0.07612      0.40836      0.93587      0
C767     C     0.07409      0.40187      0.95877      0
C768     C     0.17315      0.59946      0.93824      0
C769     C     0.16867      0.59298      0.96114      0
C770     C     0.23764      0.68125      0.97378      0
C771     C     0.2323       0.67516      0.99669      0
C772     C     0.4127       0.83518      0.97615      0
C773     C     0.40619      0.83076      0.99906      0
C774     C     0.94412      0.68605      0.77947      0
C775     C     0.94469      0.69207      0.80238      0
C776     C     0.88596      0.49932      0.78184      0
C777     C     0.88925      0.50596      0.80475      0
C778     C     0.83574      0.41353      0.81738      0
C779     C     0.84008      0.42005      0.84029      0
C780     C     0.68202      0.23833      0.81975      0
C781     C     0.68806      0.24374      0.84266      0
C782     C     0.60029      0.17373      0.8553       0
C783     C     0.60675      0.1783       0.87821      0
C784     C     0.40919      0.07638      0.85767      0
C785     C     0.4157       0.07851      0.88057      0
C786     C     0.32688      0.05742      0.89321      0
C787     C     0.33302      0.05829      0.91612      0
C788     C     0.17073      0.07476      0.89558      0
C789     C     0.17524      0.0728       0.91849      0
C790     C     0.11899      0.10861      0.93113      0
C791     C     0.12249      0.10546      0.95403      0
C792     C     0.05689      0.23408      0.9335       0
C793     C     0.0577       0.22877      0.9564       0
C794     C     0.05531      0.30793      0.96904      0
C795     C     0.05484      0.30196      0.99195      0
C796     C     0.11075      0.49404      0.97141      0
C797     C     0.10755      0.4874       0.99432      0
C798     C     0.92783      0.6046       0.81501      0
C799     C     0.92966      0.61104      0.83792      0
C800     C     0.89556      0.51924      0.85056      0
C801     C     0.89859      0.52587      0.87347      0
C802     C     0.77298      0.33097      0.85293      0
C803     C     0.7782       0.33714      0.87584      0
C804     C     0.70002      0.25472      0.88847      0
C805     C     0.70594      0.2603       0.91138      0
C806     C     0.51481      0.12132      0.89084      0
C807     C     0.52145      0.12487      0.91375      0
C808     C     0.42878      0.08304      0.92639      0
C809     C     0.43535      0.08545      0.9493       0
C810     C     0.25104      0.05498      0.92876      0
C811     C     0.25658      0.05458      0.95166      0
C812     C     0.18449      0.06917      0.9643       0
C813     C     0.18922      0.06749      0.98721      0
C814     C     0.08149      0.15708      0.96667      0
C815     C     0.08383      0.15287      0.98958      0
C816     C     0.94554      0.70397      0.84819      0
C817     C     0.94581      0.70986      0.8711       0
C818     C     0.93304      0.62386      0.88373      0
C819     C     0.93459      0.63022      0.90664      0
C820     C     0.84852      0.43316      0.8861       0
C821     C     0.85263      0.43973      0.90901      0
C822     C     0.78846      0.34957      0.92165      0
C823     C     0.79349      0.35584      0.94456      0
C824     C     0.6196       0.18764      0.92402      0
C825     C     0.62598      0.19241      0.94693      0
C826     C     0.5347       0.13222      0.95956      0
C827     C     0.54132      0.13602      0.98247      0
C828     C     0.34541      0.06034      0.96193      0
C829     C     0.35166      0.06151      0.98484      0
C830     C     0.26781      0.05406      0.99748      0
C831     C     0.12973      0.09944      0.99985      0
C832     C     0.94606      0.72148      0.91691      0
C833     C     0.90437      0.53912      0.91928      0
C834     C     0.90713      0.54573      0.94219      0
C835     C     0.8606       0.45292      0.95482      0
C836     C     0.86447      0.45952      0.97773      0
C837     C     0.71763      0.27161      0.95719      0
C838     C     0.7234       0.27734      0.9801       0
C839     C     0.63867      0.20217      0.99274      0
C840     C     0.44852      0.09054      0.99511      0
C841     C     0.93739      0.64287      0.95245      0
C842     C     0.93864      0.64914      0.97536      0
C843     C     0.91238      0.55892      0.988        0
C844     C     0.80337      0.36847      0.99037      0


