data_SWNT-3-20

_audit_creation_method RASPA-1.0
_audit_creation_date 2012-2-4
_audit_author_name 'David Dubbeldam'

_cell_length_a    20.3015
_cell_length_b    20.3015
_cell_length_c    92.2563
_cell_angle_alpha 90
_cell_angle_beta  90
_cell_angle_gamma 120
_cell_volume      32929.3

_symmetry_cell_setting          triclinic
_symmetry_space_group_name_Hall 'P 1'
_symmetry_space_group_name_H-M  'P 1'
_symmetry_Int_Tables_number     1

_symmetry_equiv_pos_as_xyz 'x,y,z'

loop_
_atom_site_label
_atom_site_type_symbol
_atom_site_fract_x
_atom_site_fract_y
_atom_site_fract_z
_atom_site_charge
C        C     0.98006      0.77902      0.00188      0
C        C     0.97906      0.78687      0.01716      0
C        C     0.87196      0.95168      0.01077      0
C        C     0.94379      0.88514      0.01397      0
C        C     0.96499      0.84294      0.02321      0
C        C     0.96234      0.84968      0.03849      0
C        C     0.64481      0.9707       0.00437      0
C        C     0.76949      0.981        0.00757      0
C        C     0.82048      0.97222      0.01681      0
C        C     0.81318      0.97408      0.03209      0
C        C     0.90961      0.92509      0.02001      0
C        C     0.90442      0.92958      0.03529      0
C        C     0.93586      0.89648      0.04453      0
C        C     0.93163      0.90192      0.05981      0
C        C     0.97647      0.80221      0.04773      0
C        C     0.97489      0.8097       0.06301      0
C        C     0.98178      0.75756      0.07225      0
C        C     0.9813       0.7657       0.08753      0
C        C     0.5082       0.92161      0.00117      0
C        C     0.57252      0.94908      0.01041      0
C        C     0.56293      0.94546      0.02569      0
C        C     0.70494      0.98044      0.01361      0
C        C     0.69613      0.97953      0.02889      0
C        C     0.75321      0.98196      0.03813      0
C        C     0.74491      0.98215      0.05341      0
C        C     0.85934      0.95809      0.04133      0
C        C     0.8528       0.96102      0.05661      0
C        C     0.89354      0.93803      0.06585      0
C        C     0.88786      0.94199      0.08113      0
C        C     0.95647      0.86274      0.06905      0
C        C     0.95325      0.86905      0.08433      0
C        C     0.97116      0.8243       0.09357      0
C        C     0.969        0.8314       0.10885      0
C        C     0.30115      0.78098      0.00402      0
C        C     0.29236      0.77305      0.0193       0
C        C     0.43412      0.88071      0.00721      0
C        C     0.42454      0.87469      0.02249      0
C        C     0.48882      0.91187      0.03173      0
C        C     0.47914      0.90675      0.04702      0
C        C     0.62621      0.96611      0.03493      0
C        C     0.61684      0.96354      0.05021      0
C        C     0.67827      0.97711      0.05945      0
C        C     0.66924      0.97562      0.07473      0
C        C     0.79819      0.97723      0.06265      0
C        C     0.79052      0.97852      0.07793      0
C        C     0.83931      0.96633      0.08717      0
C        C     0.83236      0.96869      0.10245      0
C        C     0.92265      0.9123       0.09037      0
C        C     0.9179       0.91724      0.10565      0
C        C     0.94628      0.88122      0.11489      0
C        C     0.94252      0.88707      0.13017      0
C        C     0.97975      0.78165      0.11809      0
C        C     0.97868      0.78946      0.13337      0
C        C     0.98216      0.74377      0.15789      0
C        C     0.08882      0.5125       0.0129       0
C        C     0.18456      0.6581       0.00082      0
C        C     0.1773       0.64891      0.0161       0
C        C     0.22804      0.70883      0.02534      0
C        C     0.2201       0.70006      0.04062      0
C        C     0.35235      0.82368      0.02854      0
C        C     0.34316      0.81644      0.04382      0
C        C     0.40546      0.86219      0.05306      0
C        C     0.39598      0.85573      0.06834      0
C        C     0.54367      0.93769      0.05625      0
C        C     0.53401      0.93353      0.07154      0
C        C     0.59795      0.95783      0.08077      0
C        C     0.58844      0.9547       0.09606      0
C        C     0.72802      0.98193      0.08397      0
C        C     0.71944      0.98154      0.09925      0
C        C     0.77482      0.98051      0.10849      0
C        C     0.7668       0.98122      0.12377      0
C        C     0.87604      0.94938      0.11169      0
C        C     0.8699       0.9528       0.12697      0
C        C     0.9079       0.92661      0.13621      0
C        C     0.90265      0.93104      0.15149      0
C        C     0.96413      0.8452       0.13941      0
C        C     0.96141      0.8519       0.15469      0
C        C     0.97597      0.80472      0.16393      0
C        C     0.97432      0.81217      0.17921      0
C        C     0.018        0.24792      0.0065       0
C        C     0.03423      0.37507      0.0097       0
C        C     0.05505      0.43839      0.01894      0
C        C     0.05141      0.42879      0.03422      0
C        C     0.12615      0.57677      0.02214      0
C        C     0.1201       0.56719      0.03742      0
C        C     0.16317      0.63036      0.04666      0
C        C     0.1563       0.62101      0.06194      0
C        C     0.27505      0.75686      0.04986      0
C        C     0.26652      0.74861      0.06514      0
C        C     0.32496      0.80156      0.07438      0
C        C     0.31597      0.79394      0.08966      0
C        C     0.4598       0.89601      0.07758      0
C        C     0.45015      0.89041      0.09286      0
C        C     0.51466      0.9247       0.1021       0
C        C     0.50497      0.92003      0.11738      0
C        C     0.65096      0.97205      0.1053       0
C        C     0.64173      0.96998      0.12058      0
C        C     0.70201      0.98016      0.12982      0
C        C     0.69318      0.97918      0.1451       0
C        C     0.81806      0.97286      0.13301      0
C        C     0.81071      0.97466      0.14829      0
C        C     0.85718      0.95909      0.15753      0
C        C     0.8506       0.96196      0.17281      0
C        C     0.93447      0.89831      0.16073      0
C        C     0.93018      0.90369      0.17601      0
C        C     0.95542      0.86486      0.18525      0
C        C     0.95214      0.87112      0.20053      0
C        C     0.98164      0.76029      0.18845      0
C        C     0.98109      0.76839      0.20373      0
C        C     0.10276      0.06471      0.00011      0
C        C     0.04149      0.14155      0.0033       0
C        C     0.02568      0.18783      0.01254      0
C        C     0.02751      0.18051      0.02783      0
C        C     0.02061      0.30508      0.01574      0
C        C     0.01967      0.29626      0.03102      0
C        C     0.02959      0.35646      0.04026      0
C        C     0.02756      0.34724      0.05554      0
C        C     0.07904      0.49313      0.04346      0
C        C     0.0744       0.48344      0.05874      0
C        C     0.10848      0.54795      0.06798      0
C        C     0.1029       0.5383       0.08326      0
C        C     0.20455      0.68227      0.07118      0
C        C     0.19695      0.67326      0.08646      0
C        C     0.24976      0.73181      0.0957       0
C        C     0.24153      0.72327      0.11098      0
C        C     0.37715      0.84236      0.0989       0
C        C     0.3678       0.83547      0.11418      0
C        C     0.43092      0.87872      0.12342      0
C        C     0.42135      0.87265      0.1387       0
C        C     0.56932      0.94789      0.12662      0
C        C     0.55972      0.94421      0.1419       0
C        C     0.62309      0.96528      0.15114      0
C        C     0.6137       0.96264      0.16642      0
C        C     0.75045      0.98204      0.15434      0
C        C     0.74212      0.98216      0.16962      0
C        C     0.79565      0.97768      0.17886      0
C        C     0.78793      0.9789       0.19414      0
C        C     0.89167      0.93937      0.18205      0
C        C     0.88594      0.94327      0.19733      0
C        C     0.92108      0.91396      0.20657      0
C        C     0.91628      0.91885      0.22186      0
C        C     0.97046      0.82668      0.20977      0
C        C     0.96824      0.83374      0.22505      0
C        C     0.97941      0.78427      0.23429      0
C        C     0.97828      0.79203      0.24957      0
C        C     0.1494       0.03804      0.00615      0
C        C     0.15613      0.03536      0.02143      0
C        C     0.06982      0.09631      0.00935      0
C        C     0.07428      0.09109      0.02463      0
C        C     0.04786      0.12888      0.03387      0
C        C     0.05132      0.12277      0.04915      0
C        C     0.01891      0.23161      0.03706      0
C        C     0.01965      0.22362      0.05235      0
C        C     0.01837      0.27887      0.06159      0
C        C     0.01801      0.2703       0.07687      0
C        C     0.04467      0.40969      0.06478      0
C        C     0.04157      0.40019      0.08006      0
C        C     0.06564      0.46409      0.0893       0
C        C     0.06152      0.45444      0.10458      0
C        C     0.14299      0.60216      0.0925       0
C        C     0.13655      0.59267      0.10778      0
C        C     0.18213      0.65504      0.11702      0
C        C     0.17491      0.64584      0.1323       0
C        C     0.29821      0.77835      0.12022      0
C        C     0.28945      0.77038      0.1355       0
C        C     0.34928      0.82128      0.14474      0
C        C     0.34011      0.81399      0.16002      0
C        C     0.48559      0.91018      0.14794      0
C        C     0.47591      0.905        0.16322      0
C        C     0.54045      0.93632      0.17246      0
C        C     0.53079      0.93211      0.18774      0
C        C     0.67527      0.97664      0.17566      0
C        C     0.66621      0.97508      0.19094      0
C        C     0.72517      0.98182      0.20018      0
C        C     0.71656      0.98136      0.21546      0
C        C     0.83701      0.96714      0.20338      0
C        C     0.83001      0.96944      0.21866      0
C        C     0.87401      0.95054      0.2279       0
C        C     0.86782      0.9539       0.24318      0
C        C     0.94505      0.88319      0.23109      0
C        C     0.94123      0.88899      0.24638      0
C        C     0.96324      0.84745      0.25561      0
C        C     0.96046      0.8541       0.2709       0
C        C     0.98212      0.74655      0.27409      0
C        C     0.39574      0.04018      0.01503      0
C        C     0.25788      0.01784      0.00295      0
C        C     0.2663       0.01791      0.01823      0
C        C     0.21207      0.0211       0.02747      0
C        C     0.2199       0.02007      0.04275      0
C        C     0.11406      0.05673      0.03067      0
C        C     0.11995      0.053        0.04595      0
C        C     0.08372      0.08115      0.05519      0
C        C     0.08869      0.07644      0.07047      0
C        C     0.03176      0.16626      0.05839      0
C        C     0.03416      0.15934      0.07367      0
C        C     0.02172      0.20797      0.08291      0
C        C     0.02304      0.20031      0.09819      0
C        C     0.02407      0.32898      0.08611      0
C        C     0.02261      0.31996      0.10139      0
C        C     0.03594      0.38132      0.11063      0
C        C     0.0334       0.37195      0.12591      0
C        C     0.09224      0.51896      0.11382      0
C        C     0.08715      0.50928      0.1291       0
C        C     0.12411      0.57358      0.13834      0
C        C     0.11812      0.56399      0.15362      0
C        C     0.22538      0.70592      0.14154      0
C        C     0.21748      0.69711      0.15682      0
C        C     0.2722       0.75412      0.16606      0
C        C     0.2637       0.74584      0.18134      0
C        C     0.4023       0.86005      0.16926      0
C        C     0.39283      0.85354      0.18454      0
C        C     0.45658      0.89416      0.19378      0
C        C     0.44694      0.8885       0.20906      0
C        C     0.59478      0.95681      0.19698      0
C        C     0.58526      0.95362      0.21226      0
C        C     0.64789      0.97139      0.2215       0
C        C     0.63864      0.96925      0.23678      0
C        C     0.77216      0.98077      0.2247       0
C        C     0.76411      0.98141      0.23998      0
C        C     0.81562      0.97348      0.24922      0
C        C     0.80824      0.97522      0.2645       0
C        C     0.90617      0.9281       0.25242      0
C        C     0.90086      0.93248      0.2677       0
C        C     0.93306      0.90012      0.27694      0
C        C     0.92871      0.90545      0.29222      0
C        C     0.97544      0.80721      0.28014      0
C        C     0.97373      0.81462      0.29542      0
C        C     0.98148      0.763        0.30466      0
C        C     0.98087      0.77107      0.31994      0
C        C     0.669        0.19342      0.00864      0
C        C     0.53376      0.10034      0.01183      0
C        C     0.46921      0.06789      0.02107      0
C        C     0.47889      0.07228      0.03635      0
C        C     0.33379      0.02492      0.02427      0
C        C     0.34292      0.02667      0.03955      0
C        C     0.28344      0.01864      0.04879      0
C        C     0.29214      0.0193       0.06407      0
C        C     0.16999      0.03056      0.05199      0
C        C     0.17712      0.02844      0.06727      0
C        C     0.13218      0.0461       0.07651      0
C        C     0.13852      0.04292      0.09179      0
C        C     0.05877      0.11101      0.07971      0
C        C     0.06277      0.10536      0.09499      0
C        C     0.03954      0.1459       0.10423      0
C        C     0.0425       0.1394       0.11951      0
C        C     0.01788      0.25345      0.10743      0
C        C     0.0181       0.24518      0.12271      0
C        C     0.02028      0.30213      0.13195      0
C        C     0.0194       0.29334      0.14723      0
C        C     0.05382      0.43519      0.13515      0
C        C     0.05023      0.4256       0.15043      0
C        C     0.07747      0.4899       0.15967      0
C        C     0.07289      0.48021      0.17495      0
C        C     0.16086      0.62725      0.16286      0
C        C     0.15404      0.61788      0.17815      0
C        C     0.202        0.67927      0.18738      0
C        C     0.19445      0.67024      0.20267      0
C        C     0.32196      0.79904      0.19058      0
C        C     0.31299      0.79138      0.20586      0
C        C     0.37403      0.84008      0.2151       0
C        C     0.3647       0.83314      0.23038      0
C        C     0.51143      0.92316      0.2183       0
C        C     0.50174      0.91843      0.23358      0
C        C     0.56613      0.94669      0.24282      0
C        C     0.55652      0.94295      0.2581       0
C        C     0.69908      0.97985      0.24602      0
C        C     0.69021      0.97881      0.2613       0
C        C     0.74769      0.9821       0.27054      0
C        C     0.73932      0.98216      0.28582      0
C        C     0.855        0.96007      0.27374      0
C        C     0.84837      0.96287      0.28902      0
C        C     0.88977      0.94069      0.29826      0
C        C     0.88399      0.94453      0.31354      0
C        C     0.95434      0.86696      0.30146      0
C        C     0.95101      0.87317      0.31674      0
C        C     0.96974      0.82905      0.32598      0
C        C     0.96746      0.83606      0.34126      0
C        C     0.88772      0.44562      0.00224      0
C        C     0.79032      0.31177      0.00544      0
C        C     0.7363       0.25416      0.01468      0
C        C     0.7447       0.26255      0.02996      0
C        C     0.60717      0.14646      0.01788      0
C        C     0.61659      0.15312      0.03316      0
C        C     0.55306      0.1115       0.0424       0
C        C     0.56268      0.11731      0.05768      0
C        C     0.41474      0.04638      0.04559      0
C        C     0.42429      0.04976      0.06087      0
C        C     0.36136      0.03075      0.07011      0
C        C     0.37067      0.03307      0.08539      0
C        C     0.23589      0.01859      0.07331      0
C        C     0.24405      0.01815      0.08859      0
C        C     0.19176      0.02478      0.09783      0
C        C     0.19928      0.02324      0.11311      0
C        C     0.09914      0.06752      0.10103      0
C        C     0.1046       0.06333      0.11631      0
C        C     0.07129      0.09455      0.12555      0
C        C     0.07581      0.08939      0.14083      0
C        C     0.02627      0.18538      0.12875      0
C        C     0.02817      0.1781       0.14403      0
C        C     0.01913      0.22893      0.15327      0
C        C     0.01994      0.22098      0.16855      0
C        C     0.0289       0.35338      0.15647      0
C        C     0.02693      0.34418      0.17175      0
C        C     0.04361      0.40652      0.18099      0
C        C     0.04058      0.39703      0.19627      0
C        C     0.1066       0.54474      0.18419      0
C        C     0.10108      0.53508      0.19947      0
C        C     0.14083      0.599        0.20871      0
C        C     0.13444      0.5895       0.22399      0
C        C     0.24701      0.72897      0.2119       0
C        C     0.23881      0.7204       0.22719      0
C        C     0.29528      0.77571      0.23643      0
C        C     0.28655      0.7677       0.25171      0
C        C     0.42773      0.87671      0.23962      0
C        C     0.41816      0.87059      0.2549       0
C        C     0.48236      0.90847      0.26414      0
C        C     0.47269      0.90324      0.27942      0
C        C     0.61997      0.96442      0.26734      0
C        C     0.61056      0.96172      0.28262      0
C        C     0.67226      0.97614      0.29186      0
C        C     0.66317      0.97452      0.30714      0
C        C     0.79309      0.97811      0.29506      0
C        C     0.78534      0.97927      0.31034      0
C        C     0.83469      0.96793      0.31958      0
C        C     0.82765      0.97017      0.33486      0
C        C     0.9195       0.91561      0.32278      0
C        C     0.91464      0.92044      0.33806      0
C        C     0.94379      0.88514      0.3473       0
C        C     0.93992      0.89089      0.36258      0
C        C     0.97906      0.78687      0.3505       0
C        C     0.97786      0.7946       0.36578      0
C        C     0.98207      0.74932      0.3903       0
C        C     0.92711      0.51979      0.00828      0
C        C     0.93152      0.52946      0.02356      0
C        C     0.84596      0.38212      0.01148      0
C        C     0.85263      0.39154      0.02676      0
C        C     0.80555      0.32976      0.036        0
C        C     0.81299      0.33886      0.05128      0
C        C     0.68701      0.20862      0.0392       0
C        C     0.6959       0.2164       0.05448      0
C        C     0.6353       0.16686      0.06372      0
C        C     0.64457      0.17393      0.079        0
C        C     0.49826      0.08157      0.06692      0
C        C     0.50795      0.08646      0.0822       0
C        C     0.44348      0.05705      0.09144      0
C        C     0.45312      0.06097      0.10672      0
C        C     0.30979      0.02119      0.09463      0
C        C     0.31873      0.02243      0.10991      0
C        C     0.26068      0.01784      0.11915      0
C        C     0.26914      0.01798      0.13444      0
C        C     0.15163      0.03713      0.12235      0
C        C     0.1584       0.03451      0.13763      0
C        C     0.11601      0.05547      0.14687      0
C        C     0.12195      0.0518       0.16215      0
C        C     0.04899      0.12683      0.15007      0
C        C     0.05251      0.12077      0.16535      0
C        C     0.03254      0.16394      0.17459      0
C        C     0.03501      0.15706      0.18987      0
C        C     0.01823      0.276        0.17779      0
C        C     0.01793      0.26747      0.19307      0
C        C     0.02356      0.32597      0.20231      0
C        C     0.02217      0.31697      0.21759      0
C        C     0.06425      0.46087      0.20551      0
C        C     0.06019      0.45122      0.22079      0
C        C     0.09052      0.51573      0.23003      0
C        C     0.08549      0.50605      0.24531      0
C        C     0.17971      0.65198      0.23323      0
C        C     0.17253      0.64275      0.24851      0
C        C     0.22274      0.70299      0.25775      0
C        C     0.21486      0.69416      0.27303      0
C        C     0.34621      0.81887      0.26095      0
C        C     0.33706      0.81153      0.27623      0
C        C     0.39914      0.8579       0.28547      0
C        C     0.38968      0.85133      0.30075      0
C        C     0.53723      0.93494      0.28866      0
C        C     0.52756      0.93067      0.30394      0
C        C     0.59161      0.95577      0.31318      0
C        C     0.58208      0.95251      0.32846      0
C        C     0.72231      0.98169      0.31638      0
C        C     0.71367      0.98116      0.33166      0
C        C     0.76949      0.981        0.3409       0
C        C     0.7614       0.98158      0.35618      0
C        C     0.87196      0.95168      0.3441       0
C        C     0.86572      0.95498      0.35938      0
C        C     0.90442      0.92958      0.36862      0
C        C     0.89906      0.93389      0.3839       0
C        C     0.96234      0.84968      0.37182      0
C        C     0.95949      0.85628      0.3871       0
C        C     0.97489      0.8097       0.39634      0
C        C     0.97312      0.81706      0.41162      0
C        C     0.97307      0.65582      0.00508      0
C        C     0.97485      0.66496      0.02036      0
C        C     0.95942      0.60297      0.0296       0
C        C     0.96227      0.61241      0.04488      0
C        C     0.89892      0.46492      0.0328       0
C        C     0.90428      0.47459      0.04808      0
C        C     0.86556      0.4105       0.05732      0
C        C     0.87181      0.42004      0.0726       0
C        C     0.76119      0.2796       0.06052      0
C        C     0.76928      0.28826      0.0758       0
C        C     0.71345      0.2323       0.08504      0
C        C     0.72209      0.24041      0.10032      0
C        C     0.58184      0.12941      0.08824      0
C        C     0.59137      0.13568      0.10352      0
C        C     0.52731      0.09676      0.11276      0
C        C     0.53698      0.10215      0.12804      0
C        C     0.38944      0.03828      0.11596      0
C        C     0.39889      0.04116      0.13124      0
C        C     0.33683      0.02548      0.14048      0
C        C     0.34598      0.0273       0.15576      0
C        C     0.21466      0.02073      0.14367      0
C        C     0.22253      0.01977      0.15896      0
C        C     0.17235      0.02983      0.16819      0
C        C     0.17952      0.02778      0.18348      0
C        C     0.08536      0.07956      0.17139      0
C        C     0.09039      0.07491      0.18667      0
C        C     0.06008      0.10911      0.19591      0
C        C     0.06414      0.10352      0.21119      0
C        C     0.02214      0.2054       0.19911      0
C        C     0.02353      0.19779      0.21439      0
C        C     0.01793      0.25068      0.22363      0
C        C     0.01822      0.24244      0.23891      0
C        C     0.03507      0.37819      0.22683      0
C        C     0.0326       0.36884      0.24211      0
C        C     0.0526       0.43199      0.25135      0
C        C     0.04908      0.42241      0.26663      0
C        C     0.1221       0.57039      0.25455      0
C        C     0.11616      0.56079      0.26983      0
C        C     0.15858      0.62413      0.27907      0
C        C     0.1518       0.61475      0.29435      0
C        C     0.26935      0.75137      0.28227      0
C        C     0.26089      0.74305      0.29755      0
C        C     0.31896      0.7965       0.30679      0
C        C     0.31002      0.7888       0.32207      0
C        C     0.45337      0.89229      0.30999      0
C        C     0.44373      0.88658      0.32527      0
C        C     0.5082       0.92161      0.33451      0
C        C     0.49851      0.91682      0.34979      0
C        C     0.64481      0.9707       0.3377       0
C        C     0.63554      0.9685       0.35299      0
C        C     0.69613      0.97953      0.36222      0
C        C     0.68724      0.97842      0.37751      0
C        C     0.81318      0.97408      0.36542      0
C        C     0.80575      0.97575      0.3807       0
C        C     0.8528       0.96102      0.38994      0
C        C     0.84613      0.96377      0.40522      0
C        C     0.93163      0.90192      0.39314      0
C        C     0.92723      0.90719      0.40842      0
C        C     0.95325      0.86905      0.41766      0
C        C     0.94986      0.87521      0.43294      0
C        C     0.9813       0.7657       0.42086      0
C        C     0.98062      0.77373      0.43614      0
C        C     0.98207      0.73253      0.0264       0
C        C     0.98217      0.74097      0.04168      0
C        C     0.97783      0.68303      0.05092      0
C        C     0.97903      0.69196      0.0662       0
C        C     0.93981      0.54878      0.05412      0
C        C     0.9437       0.55841      0.0694       0
C        C     0.91451      0.49395      0.07864      0
C        C     0.91938      0.50364      0.09392      0
C        C     0.82747      0.35725      0.08184      0
C        C     0.83451      0.36653      0.09712      0
C        C     0.78514      0.30584      0.10636      0
C        C     0.79289      0.31475      0.12164      0
C        C     0.66294      0.18847      0.10956      0
C        C     0.67202      0.19592      0.12484      0
C        C     0.61032      0.14867      0.13408      0
C        C     0.61973      0.15537      0.14936      0
C        C     0.47244      0.06933      0.13728      0
C        C     0.48212      0.07378      0.15256      0
C        C     0.41792      0.04749      0.1618       0
C        C     0.42748      0.05092      0.17708      0
C        C     0.28633      0.01884      0.165        0
C        C     0.29506      0.01956      0.18028      0
C        C     0.2386       0.01842      0.18952      0
C        C     0.24679      0.01804      0.2048       0
C        C     0.13428      0.04502      0.19272      0
C        C     0.14066      0.04191      0.208        0
C        C     0.10094      0.06611      0.21724      0
C        C     0.10646      0.06197      0.23252      0
C        C     0.04051      0.14372      0.22043      0
C        C     0.04353      0.13726      0.23571      0
C        C     0.02688      0.18294      0.24495      0
C        C     0.02884      0.1757       0.26023      0
C        C     0.01996      0.29919      0.24815      0
C        C     0.01915      0.29042      0.26343      0
C        C     0.02822      0.3503       0.27267      0
C        C     0.02631      0.34112      0.28795      0
C        C     0.07593      0.48667      0.27587      0
C        C     0.0714       0.47699      0.29115      0
C        C     0.10474      0.54152      0.30039      0
C        C     0.09928      0.53186      0.31567      0
C        C     0.19947      0.67627      0.30359      0
C        C     0.19196      0.66722      0.31887      0
C        C     0.24426      0.72612      0.32811      0
C        C     0.2361       0.71752      0.34339      0
C        C     0.37091      0.83778      0.33131      0
C        C     0.3616       0.8308       0.34659      0
C        C     0.42454      0.87469      0.35583      0
C        C     0.41498      0.86852      0.37111      0
C        C     0.56293      0.94546      0.35903      0
C        C     0.55331      0.94166      0.37431      0
C        C     0.61684      0.96354      0.38355      0
C        C     0.60741      0.96078      0.39883      0
C        C     0.74491      0.98215      0.38674      0
C        C     0.73651      0.98214      0.40203      0
C        C     0.79052      0.97852      0.41127      0
C        C     0.78273      0.97961      0.42655      0
C        C     0.88786      0.94199      0.41446      0
C        C     0.88203      0.94578      0.42974      0
C        C     0.9179       0.91724      0.43898      0
C        C     0.91298      0.92201      0.45426      0
C        C     0.969        0.8314       0.44218      0
C        C     0.96666      0.83837      0.45746      0
C        C     0.97868      0.78946      0.4667       0
C        C     0.97742      0.79715      0.48198      0
C        C     0.9674       0.63116      0.07544      0
C        C     0.96969      0.64046      0.09073      0
C        C     0.95092      0.57759      0.09996      0
C        C     0.95426      0.58714      0.11525      0
C        C     0.88384      0.43921      0.10316      0
C        C     0.88963      0.44883      0.11844      0
C        C     0.8482       0.38525      0.12768      0
C        C     0.85483      0.39469      0.14296      0
C        C     0.73911      0.25695      0.13088      0
C        C     0.74747      0.26536      0.14616      0
C        C     0.68998      0.2112       0.1554       0
C        C     0.69885      0.21902      0.17068      0
C        C     0.55627      0.11342      0.1586       0
C        C     0.56588      0.11929      0.17388      0
C        C     0.50149      0.08318      0.18312      0
C        C     0.51118      0.08813      0.1984       0
C        C     0.36446      0.0315       0.18632      0
C        C     0.37379      0.03389      0.2016       0
C        C     0.31276      0.02158      0.21084      0
C        C     0.32173      0.02289      0.22612      0
C        C     0.19425      0.02425      0.21404      0
C        C     0.20181      0.02277      0.22932      0
C        C     0.15387      0.03623      0.23856      0
C        C     0.16069      0.03367      0.25384      0
C        C     0.07277      0.09281      0.24176      0
C        C     0.07735      0.0877       0.25704      0
C        C     0.05014      0.12479      0.26628      0
C        C     0.05372      0.11878      0.28156      0
C        C     0.01938      0.22627      0.26947      0
C        C     0.02025      0.21835      0.28475      0
C        C     0.01811      0.27315      0.29399      0
C        C     0.01788      0.26464      0.30928      0
C        C     0.04258      0.40335      0.29719      0
C        C     0.03961      0.39388      0.31247      0
C        C     0.06287      0.45765      0.32171      0
C        C     0.05887      0.44801      0.33699      0
C        C     0.13868      0.59584      0.32491      0
C        C     0.13234      0.58632      0.34019      0
C        C     0.1773       0.64891      0.34943      0
C        C     0.17017      0.63967      0.36471      0
C        C     0.29236      0.77305      0.35263      0
C        C     0.28366      0.76501      0.36791      0
C        C     0.34316      0.81644      0.37715      0
C        C     0.33403      0.80906      0.39243      0
C        C     0.47914      0.90675      0.38035      0
C        C     0.46946      0.90146      0.39563      0
C        C     0.53401      0.93353      0.40487      0
C        C     0.52434      0.9292       0.42015      0
C        C     0.66924      0.97562      0.40807      0
C        C     0.66013      0.97393      0.42335      0
C        C     0.71944      0.98154      0.43259      0
C        C     0.71077      0.98094      0.44787      0
C        C     0.83236      0.96869      0.43579      0
C        C     0.82528      0.97087      0.45107      0
C        C     0.8699       0.9528       0.46031      0
C        C     0.86361      0.95604      0.47559      0
C        C     0.94252      0.88707      0.4635       0
C        C     0.93858      0.89277      0.47878      0
C        C     0.96141      0.8519       0.48802      0
C        C     0.95851      0.85845      0.5033       0
C        C     0.98216      0.74377      0.49122      0
C        C     0.982        0.75208      0.5065       0
C        C     0.98085      0.70958      0.09677      0
C        C     0.98147      0.71826      0.11205      0
C        C     0.97369      0.65888      0.12129      0
C        C     0.9754       0.66799      0.13657      0
C        C     0.9286       0.52301      0.12448      0
C        C     0.93295      0.53269      0.13977      0
C        C     0.90072      0.46814      0.14901      0
C        C     0.90603      0.47781      0.16429      0
C        C     0.80804      0.33278      0.1522       0
C        C     0.81544      0.3419       0.16748      0
C        C     0.7639       0.28248      0.17672      0
C        C     0.77196      0.29117      0.192        0
C        C     0.6384       0.1692       0.17992      0
C        C     0.64765      0.17632      0.1952       0
C        C     0.58502      0.13148      0.20444      0
C        C     0.59454      0.13781      0.21972      0
C        C     0.44669      0.05834      0.20764      0
C        C     0.45633      0.06231      0.22292      0
C        C     0.39259      0.03922      0.23216      0
C        C     0.40205      0.04217      0.24744      0
C        C     0.26349      0.01786      0.23536      0
C        C     0.27198      0.01807      0.25064      0
C        C     0.21727      0.02039      0.25988      0
C        C     0.22518      0.01949      0.27516      0
C        C     0.11797      0.05422      0.26308      0
C        C     0.12396      0.05062      0.27836      0
C        C     0.08702      0.07799      0.2876       0
C        C     0.0921       0.07339      0.30288      0
C        C     0.03334      0.16163      0.2908       0
C        C     0.03587      0.1548       0.30608      0
C        C     0.02258      0.20285      0.31532      0
C        C     0.02403      0.19528      0.3306       0
C        C     0.02308      0.32296      0.31851      0
C        C     0.02175      0.31398      0.3338       0
C        C     0.03423      0.37507      0.34303      0
C        C     0.03182      0.36573      0.35832      0
C        C     0.08882      0.5125       0.34623      0
C        C     0.08385      0.50282      0.36151      0
C        C     0.1201       0.56719      0.37075      0
C        C     0.11421      0.55758      0.38603      0
C        C     0.2201       0.70006      0.37395      0
C        C     0.21227      0.6912       0.38923      0
C        C     0.26652      0.74861      0.39847      0
C        C     0.25809      0.74026      0.41375      0
C        C     0.39598      0.85573      0.40167      0
C        C     0.38654      0.84911      0.41695      0
C        C     0.45015      0.89041      0.42619      0
C        C     0.44053      0.88464      0.44147      0
C        C     0.58844      0.9547       0.42939      0
C        C     0.5789       0.95139      0.44467      0
C        C     0.64173      0.96998      0.45391      0
C        C     0.63244      0.96773      0.46919      0
C        C     0.7668       0.98122      0.45711      0
C        C     0.75868      0.98173      0.47239      0
C        C     0.81071      0.97466      0.48163      0
C        C     0.80324      0.97627      0.49691      0
C        C     0.90265      0.93104      0.48483      0
C        C     0.89724      0.93529      0.50011      0
C        C     0.93018      0.90369      0.50935      0
C        C     0.92572      0.90891      0.52463      0
C        C     0.97432      0.81217      0.51254      0
C        C     0.97249      0.81949      0.52783      0
C        C     0.98109      0.76839      0.53706      0
C        C     0.98035      0.77638      0.55235      0
C        C     0.98212      0.73536      0.14261      0
C        C     0.96039      0.60612      0.14581      0
C        C     0.96317      0.61555      0.16109      0
C        C     0.94113      0.55199      0.17033      0
C        C     0.94495      0.56161      0.18561      0
C        C     0.86766      0.41368      0.17353      0
C        C     0.87385      0.42323      0.18881      0
C        C     0.82983      0.36033      0.19805      0
C        C     0.83683      0.36964      0.21333      0
C        C     0.71634      0.23499      0.20124      0
C        C     0.72495      0.24314      0.21652      0
C        C     0.66597      0.19094      0.22576      0
C        C     0.67504      0.19844      0.24104      0
C        C     0.53054      0.09854      0.22896      0
C        C     0.5402       0.10399      0.24424      0
C        C     0.47566      0.0708       0.25348      0
C        C     0.48534      0.0753       0.26876      0
C        C     0.33987      0.02607      0.25668      0
C        C     0.34904      0.02795      0.27196      0
C        C     0.28923      0.01906      0.2812       0
C        C     0.29799      0.01984      0.29648      0
C        C     0.17472      0.02913      0.2844       0
C        C     0.18194      0.02714      0.29968      0
C        C     0.13639      0.04396      0.30892      0
C        C     0.14282      0.04091      0.3242       0
C        C     0.06142      0.10723      0.31212      0
C        C     0.06553      0.10169      0.3274       0
C        C     0.04149      0.14155      0.33664      0
C        C     0.04458      0.13514      0.35192      0
C        C     0.018        0.24792      0.33984      0
C        C     0.01836      0.23971      0.35512      0
C        C     0.01967      0.29626      0.36436      0
C        C     0.01892      0.28752      0.37964      0
C        C     0.05141      0.42879      0.36756      0
C        C     0.04795      0.41922      0.38284      0
C        C     0.0744       0.48344      0.39208      0
C        C     0.06993      0.47376      0.40736      0
C        C     0.1563       0.62101      0.39527      0
C        C     0.14958      0.61161      0.41055      0
C        C     0.19695      0.67326      0.41979      0
C        C     0.18948      0.66418      0.43507      0
C        C     0.31597      0.79394      0.42299      0
C        C     0.30705      0.7862       0.43827      0
C        C     0.3678       0.83547      0.44751      0
C        C     0.35851      0.82844      0.46279      0
C        C     0.50497      0.92003      0.45071      0
C        C     0.49528      0.91519      0.46599      0
C        C     0.55972      0.94421      0.47523      0
C        C     0.5501       0.94036      0.49051      0
C        C     0.69318      0.97918      0.47843      0
C        C     0.68426      0.978        0.49371      0
C        C     0.74212      0.98216      0.50295      0
C        C     0.7337       0.98209      0.51823      0
C        C     0.8506       0.96196      0.50615      0
C        C     0.84387      0.96464      0.52143      0
C        C     0.88594      0.94327      0.53067      0
C        C     0.88005      0.947        0.54595      0
C        C     0.95214      0.87112      0.53387      0
C        C     0.94868      0.87723      0.54915      0
C        C     0.96824      0.83374      0.55839      0
C        C     0.96584      0.84066      0.57367      0
C        C     0.97825      0.68602      0.16713      0
C        C     0.97939      0.69492      0.18241      0
C        C     0.96818      0.63427      0.19165      0
C        C     0.97041      0.64354      0.20693      0
C        C     0.91615      0.49718      0.19485      0
C        C     0.92096      0.50687      0.21013      0
C        C     0.88579      0.44242      0.21937      0
C        C     0.89152      0.45205      0.23465      0
C        C     0.78773      0.3088       0.22257      0
C        C     0.79545      0.31773      0.23785      0
C        C     0.74191      0.25974      0.24709      0
C        C     0.75024      0.26819      0.26237      0
C        C     0.61346      0.15089      0.25028      0
C        C     0.62285      0.15764      0.26557      0
C        C     0.55947      0.11536      0.2748       0
C        C     0.56908      0.12128      0.29009      0
C        C     0.4211       0.04861      0.278        0
C        C     0.43068      0.05211      0.29328      0
C        C     0.36756      0.03227      0.30252      0
C        C     0.37691      0.03472      0.3178       0
C        C     0.24132      0.01827      0.30572      0
C        C     0.24955      0.01796      0.321        0
C        C     0.19676      0.02373      0.33024      0
C        C     0.20435      0.02232      0.34552      0
C        C     0.10276      0.06471      0.33344      0
C        C     0.10833      0.06063      0.34872      0
C        C     0.07428      0.09109      0.35796      0
C        C     0.07892      0.08604      0.37324      0
C        C     0.02751      0.18051      0.36116      0
C        C     0.02954      0.17332      0.37644      0
C        C     0.01965      0.22362      0.38568      0
C        C     0.02059      0.21573      0.40096      0
C        C     0.02756      0.34724      0.38888      0
C        C     0.02572      0.33808      0.40416      0
C        C     0.04157      0.40019      0.4134       0
C        C     0.03866      0.39073      0.42868      0
C        C     0.1029       0.5383       0.4166       0
C        C     0.09749      0.52864      0.43188      0
C        C     0.13655      0.59267      0.44112      0
C        C     0.13026      0.58314      0.4564       0
C        C     0.24153      0.72327      0.44431      0
C        C     0.2334       0.71463      0.45959      0
C        C     0.28945      0.77038      0.46883      0
C        C     0.28078      0.7623       0.48412      0
C        C     0.42135      0.87265      0.47203      0
C        C     0.41181      0.86643      0.48731      0
C        C     0.47591      0.905        0.49655      0
C        C     0.46624      0.89966      0.51183      0
C        C     0.6137       0.96264      0.49975      0
C        C     0.60426      0.95982      0.51503      0
C        C     0.66621      0.97508      0.52427      0
C        C     0.65708      0.97333      0.53955      0
C        C     0.78793      0.9789       0.52747      0
C        C     0.7801       0.97993      0.54275      0
C        C     0.83001      0.96944      0.55199      0
C        C     0.82288      0.97156      0.56727      0
C        C     0.91628      0.91885      0.55519      0
C        C     0.91131      0.92356      0.57047      0
C        C     0.94123      0.88899      0.57971      0
C        C     0.93723      0.89464      0.59499      0
C        C     0.97828      0.79203      0.58291      0
C        C     0.97696      0.79969      0.59819      0
C        C     0.98212      0.74655      0.60743      0
C        C     0.9819       0.75482      0.62271      0
C        C     0.98108      0.71248      0.21297      0
C        C     0.98163      0.72113      0.22825      0
C        C     0.95205      0.58078      0.21617      0
C        C     0.95533      0.59031      0.23145      0
C        C     0.93007      0.52624      0.24069      0
C        C     0.93436      0.53591      0.25597      0
C        C     0.85042      0.38839      0.24389      0
C        C     0.85701      0.39784      0.25917      0
C        C     0.81052      0.33582      0.26841      0
C        C     0.81787      0.34496      0.28369      0
C        C     0.69295      0.2138       0.27161      0
C        C     0.70179      0.22165      0.28689      0
C        C     0.64149      0.17156      0.29613      0
C        C     0.65072      0.17872      0.31141      0
C        C     0.50472      0.08481      0.29932      0
C        C     0.51441      0.08982      0.31461      0
C        C     0.4499       0.05964      0.32385      0
C        C     0.45955      0.06368      0.33913      0
C        C     0.31574      0.022        0.32704      0
C        C     0.32473      0.02336      0.34232      0
C        C     0.2663       0.01791      0.35156      0
C        C     0.27483      0.01818      0.36684      0
C        C     0.15613      0.03536      0.35476      0
C        C     0.16299      0.03286      0.37004      0
C        C     0.11995      0.053        0.37928      0
C        C     0.12599      0.04946      0.39456      0
C        C     0.05132      0.12277      0.38248      0
C        C     0.05495      0.11681      0.39776      0
C        C     0.03416      0.15934      0.407        0
C        C     0.03676      0.15255      0.42228      0
C        C     0.01801      0.2703       0.4102       0
C        C     0.01785      0.26183      0.42548      0
C        C     0.02261      0.31996      0.43472      0
C        C     0.02135      0.31101      0.45         0
C        C     0.06152      0.45444      0.43792      0
C        C     0.05758      0.4448       0.4532       0
C        C     0.08715      0.50928      0.46244      0
C        C     0.08223      0.49959      0.47772      0
C        C     0.17491      0.64584      0.46564      0
C        C     0.16782      0.63657      0.48092      0
C        C     0.21748      0.69711      0.49016      0
C        C     0.20968      0.68823      0.50544      0
C        C     0.34011      0.81399      0.49335      0
C        C     0.331        0.80658      0.50864      0
C        C     0.39283      0.85354      0.51788      0
C        C     0.38341      0.84688      0.53316      0
C        C     0.53079      0.93211      0.52107      0
C        C     0.52111      0.92772      0.53635      0
C        C     0.58526      0.95362      0.54559      0
C        C     0.57571      0.95024      0.56087      0
C        C     0.71656      0.98136      0.54879      0
C        C     0.70786      0.9807       0.56407      0
C        C     0.76411      0.98141      0.57331      0
C        C     0.75595      0.98185      0.58859      0
C        C     0.86782      0.9539       0.57651      0
C        C     0.86148      0.95708      0.59179      0
C        C     0.90086      0.93248      0.60103      0
C        C     0.8954       0.93667      0.61631      0
C        C     0.96046      0.8541       0.60423      0
C        C     0.9575       0.8606       0.61951      0
C        C     0.97373      0.81462      0.62875      0
C        C     0.97183      0.8219       0.64403      0
C        C     0.97428      0.66192      0.23749      0
C        C     0.97593      0.67102      0.25277      0
C        C     0.96134      0.60927      0.26201      0
C        C     0.96406      0.61868      0.27729      0
C        C     0.90251      0.47136      0.26521      0
C        C     0.90776      0.48104      0.28049      0
C        C     0.86974      0.41686      0.28973      0
C        C     0.87589      0.42642      0.30501      0
C        C     0.7666       0.28537      0.29293      0
C        C     0.77462      0.29408      0.30821      0
C        C     0.71922      0.2377       0.31745      0
C        C     0.7278       0.24588      0.33273      0
C        C     0.58819      0.13357      0.32065      0
C        C     0.5977       0.13995      0.33593      0
C        C     0.53376      0.10034      0.34517      0
C        C     0.54342      0.10584      0.36045      0
C        C     0.39574      0.04018      0.34837      0
C        C     0.40522      0.04319      0.36365      0
C        C     0.34292      0.02667      0.37289      0
C        C     0.35211      0.02861      0.38817      0
C        C     0.2199       0.02007      0.37608      0
C        C     0.22784      0.01923      0.39136      0
C        C     0.17712      0.02844      0.4006       0
C        C     0.18438      0.02652      0.41588      0
C        C     0.08869      0.07644      0.4038       0
C        C     0.09383      0.0719       0.41908      0
C        C     0.06277      0.10536      0.42832      0
C        C     0.06694      0.09988      0.4436       0
C        C     0.02304      0.20031      0.43152      0
C        C     0.02456      0.19279      0.4468       0
C        C     0.0181       0.24518      0.45604      0
C        C     0.01852      0.237        0.47132      0
C        C     0.0334       0.37195      0.45924      0
C        C     0.03105      0.36264      0.47452      0
C        C     0.05023      0.4256       0.48376      0
C        C     0.04683      0.41604      0.49904      0
C        C     0.11812      0.56399      0.48696      0
C        C     0.11228      0.55438      0.50224      0
C        C     0.15404      0.61788      0.51148      0
C        C     0.14737      0.60846      0.52676      0
C        C     0.2637       0.74584      0.51468      0
C        C     0.2553       0.73745      0.52996      0
C        C     0.31299      0.79138      0.5392       0
C        C     0.3041       0.7836       0.55448      0
C        C     0.44694      0.8885       0.5424       0
C        C     0.43732      0.88269      0.55768      0
C        C     0.50174      0.91843      0.56692      0
C        C     0.49205      0.91354      0.5822       0
C        C     0.63864      0.96925      0.57011      0
C        C     0.62933      0.96693      0.58539      0
C        C     0.69021      0.97881      0.59463      0
C        C     0.68127      0.97757      0.60991      0
C        C     0.80824      0.97522      0.59783      0
C        C     0.80072      0.97676      0.61311      0
C        C     0.84837      0.96287      0.62235      0
C        C     0.8416       0.96549      0.63763      0
C        C     0.92871      0.90545      0.62555      0
C        C     0.92419      0.91061      0.64083      0
C        C     0.95101      0.87317      0.65007      0
C        C     0.94749      0.87923      0.66535      0
C        C     0.98087      0.77107      0.65327      0
C        C     0.98006      0.77902      0.66855      0
C        C     0.98215      0.73817      0.25881      0
C        C     0.97865      0.68899      0.28333      0
C        C     0.97972      0.69787      0.29861      0
C        C     0.94242      0.5552       0.28653      0
C        C     0.94618      0.56481      0.30181      0
C        C     0.91777      0.50041      0.31105      0
C        C     0.92253      0.5101       0.32633      0
C        C     0.83218      0.36343      0.31425      0
C        C     0.83914      0.37275      0.32953      0
C        C     0.79032      0.31177      0.33877      0
C        C     0.798        0.32073      0.35405      0
C        C     0.669        0.19342      0.34197      0
C        C     0.67804      0.20096      0.35725      0
C        C     0.61659      0.15312      0.36649      0
C        C     0.62597      0.15992      0.38177      0
C        C     0.47889      0.07228      0.36969      0
C        C     0.48857      0.07684      0.38497      0
C        C     0.42429      0.04976      0.39421      0
C        C     0.43387      0.05331      0.40949      0
C        C     0.29214      0.0193       0.39741      0
C        C     0.30092      0.02015      0.41269      0
C        C     0.24405      0.01815      0.42193      0
C        C     0.25231      0.0179       0.43721      0
C        C     0.13852      0.04292      0.42512      0
C        C     0.145        0.03993      0.44041      0
C        C     0.1046       0.06333      0.44964      0
C        C     0.11023      0.05931      0.46493      0
C        C     0.0425       0.1394       0.45284      0
C        C     0.04566      0.13304      0.46812      0
C        C     0.02817      0.1781       0.47736      0
C        C     0.03026      0.17095      0.49264      0
C        C     0.0194       0.29334      0.48056      0
C        C     0.01872      0.28463      0.49584      0
C        C     0.02693      0.34418      0.50508      0
C        C     0.02515      0.33504      0.52036      0
C        C     0.07289      0.48021      0.50828      0
C        C     0.06848      0.47054      0.52356      0
C        C     0.10108      0.53508      0.5328       0
C        C     0.09572      0.52541      0.54808      0
C        C     0.19445      0.67024      0.536        0
C        C     0.18701      0.66114      0.55128      0
C        C     0.23881      0.7204       0.56052      0
C        C     0.23072      0.71174      0.5758       0
C        C     0.3647       0.83314      0.56372      0
C        C     0.35543      0.82607      0.579        0
C        C     0.41816      0.87059      0.58824      0
C        C     0.40863      0.86432      0.60352      0
C        C     0.55652      0.94295      0.59144      0
C        C     0.54688      0.93903      0.60672      0
C        C     0.61056      0.96172      0.61596      0
C        C     0.60111      0.95884      0.63124      0
C        C     0.73932      0.98216      0.61915      0
C        C     0.73086      0.98202      0.63444      0
C        C     0.78534      0.97927      0.64367      0
C        C     0.77747      0.98023      0.65896      0
C        C     0.88399      0.94453      0.64687      0
C        C     0.87805      0.9482       0.66215      0
C        C     0.91464      0.92044      0.67139      0
C        C     0.90961      0.92509      0.68667      0
C        C     0.96746      0.83606      0.67459      0
C        C     0.96499      0.84294      0.68987      0
C        C     0.97786      0.7946       0.69911      0
C        C     0.97647      0.80221      0.71439      0
C        C     0.96895      0.63736      0.30785      0
C        C     0.9711       0.64662      0.32313      0
C        C     0.95317      0.58396      0.33237      0
C        C     0.95639      0.59348      0.34765      0
C        C     0.88772      0.44562      0.33557      0
C        C     0.8934       0.45526      0.35085      0
C        C     0.85263      0.39154      0.36009      0
C        C     0.85917      0.401        0.37537      0
C        C     0.7447       0.26255      0.36329      0
C        C     0.75299      0.27103      0.37857      0
C        C     0.6959       0.2164       0.38781      0
C        C     0.70472      0.22429      0.40309      0
C        C     0.56268      0.11731      0.39101      0
C        C     0.57227      0.12329      0.40629      0
C        C     0.50795      0.08646      0.41553      0
C        C     0.51764      0.09153      0.43081      0
C        C     0.37067      0.03307      0.41873      0
C        C     0.38003      0.03558      0.43401      0
C        C     0.31873      0.02243      0.44325      0
C        C     0.32774      0.02386      0.45853      0
C        C     0.19928      0.02324      0.44645      0
C        C     0.20691      0.02189      0.46173      0
C        C     0.1584       0.03451      0.47097      0
C        C     0.16531      0.03207      0.48625      0
C        C     0.07581      0.08939      0.47416      0
C        C     0.0805       0.08439      0.48945      0
C        C     0.05251      0.12077      0.49869      0
C        C     0.05621      0.11486      0.51397      0
C        C     0.01994      0.22098      0.50188      0
C        C     0.02094      0.21313      0.51716      0
C        C     0.01793      0.26747      0.5264       0
C        C     0.01783      0.25903      0.54168      0
C        C     0.04058      0.39703      0.5296       0
C        C     0.03773      0.38759      0.54488      0
C        C     0.06019      0.45122      0.55412      0
C        C     0.0563       0.44159      0.5694       0
C        C     0.13444      0.5895       0.55732      0
C        C     0.12819      0.57996      0.5726       0
C        C     0.17253      0.64275      0.58184      0
C        C     0.16549      0.63347      0.59712      0
C        C     0.28655      0.7677       0.58504      0
C        C     0.27791      0.75959      0.60032      0
C        C     0.33706      0.81153      0.60956      0
C        C     0.32798      0.80408      0.62484      0
C        C     0.47269      0.90324      0.61276      0
C        C     0.46302      0.89785      0.62804      0
C        C     0.52756      0.93067      0.63728      0
C        C     0.51788      0.92622      0.65256      0
C        C     0.66317      0.97452      0.64048      0
C        C     0.65402      0.9727       0.65576      0
C        C     0.71367      0.98116      0.665        0
C        C     0.70494      0.98044      0.68028      0
C        C     0.82765      0.97017      0.66819      0
C        C     0.82048      0.97222      0.68348      0
C        C     0.86572      0.95498      0.69272      0
C        C     0.85934      0.95809      0.708        0
C        C     0.93992      0.89089      0.69591      0
C        C     0.93586      0.89648      0.71119      0
C        C     0.95949      0.85628      0.72043      0
C        C     0.95647      0.86274      0.73571      0
C        C     0.98207      0.74932      0.72363      0
C        C     0.98178      0.75756      0.73891      0
C        C     0.98128      0.71537      0.32918      0
C        C     0.98177      0.724        0.34446      0
C        C     0.97485      0.66496      0.3537       0
C        C     0.97644      0.67403      0.36898      0
C        C     0.93152      0.52946      0.35689      0
C        C     0.93575      0.53913      0.37217      0
C        C     0.90428      0.47459      0.38141      0
C        C     0.90948      0.48427      0.3967       0
C        C     0.81299      0.33886      0.38461      0
C        C     0.82029      0.34802      0.39989      0
C        C     0.76928      0.28826      0.40913      0
C        C     0.77726      0.29701      0.42441      0
C        C     0.64457      0.17393      0.41233      0
C        C     0.65379      0.18113      0.42761      0
C        C     0.59137      0.13568      0.43685      0
C        C     0.60086      0.1421       0.45213      0
C        C     0.45312      0.06097      0.44005      0
C        C     0.46277      0.06506      0.45533      0
C        C     0.39889      0.04116      0.46457      0
C        C     0.40839      0.04423      0.47985      0
C        C     0.26914      0.01798      0.46777      0
C        C     0.27769      0.01831      0.48305      0
C        C     0.22253      0.01977      0.49229      0
C        C     0.23051      0.019        0.50757      0
C        C     0.12195      0.0518       0.49549      0
C        C     0.12804      0.04832      0.51077      0
C        C     0.09039      0.07491      0.52001      0
C        C     0.09558      0.07042      0.53529      0
C        C     0.03501      0.15706      0.52321      0
C        C     0.03766      0.15032      0.53849      0
C        C     0.02353      0.19779      0.54773      0
C        C     0.02511      0.1903       0.56301      0
C        C     0.02217      0.31697      0.55092      0
C        C     0.02097      0.30804      0.5662       0
C        C     0.0326       0.36884      0.57544      0
C        C     0.03031      0.35954      0.59073      0
C        C     0.08549      0.50605      0.57864      0
C        C     0.08062      0.49636      0.59392      0
C        C     0.11616      0.56079      0.60316      0
C        C     0.11037      0.55117      0.61844      0
C        C     0.21486      0.69416      0.60636      0
C        C     0.20711      0.68525      0.62164      0
C        C     0.26089      0.74305      0.63088      0
C        C     0.25253      0.73464      0.64616      0
C        C     0.38968      0.85133      0.63408      0
C        C     0.38027      0.84463      0.64936      0
C        C     0.44373      0.88658      0.6586       0
C        C     0.43412      0.88071      0.67388      0
C        C     0.58208      0.95251      0.6618       0
C        C     0.57252      0.94908      0.67708      0
C        C     0.63554      0.9685       0.68632      0
C        C     0.62621      0.96611      0.7016       0
C        C     0.7614       0.98158      0.68952      0
C        C     0.75321      0.98196      0.7048       0
C        C     0.80575      0.97575      0.71404      0
C        C     0.79819      0.97723      0.72932      0
C        C     0.89906      0.93389      0.71724      0
C        C     0.89354      0.93803      0.73252      0
C        C     0.92723      0.90719      0.74176      0
C        C     0.92265      0.9123       0.75704      0
C        C     0.97312      0.81706      0.74495      0
C        C     0.97116      0.8243       0.76023      0
C        C     0.98062      0.77373      0.76947      0
C        C     0.97975      0.78165      0.78475      0
C        C     0.98217      0.74097      0.37502      0
C        C     0.96227      0.61241      0.37822      0
C        C     0.96493      0.62181      0.3935       0
C        C     0.9437       0.55841      0.40274      0
C        C     0.9474       0.56801      0.41802      0
C        C     0.87181      0.42004      0.40593      0
C        C     0.8779       0.42961      0.42122      0
C        C     0.83451      0.36653      0.43045      0
C        C     0.84142      0.37587      0.44574      0
C        C     0.72209      0.24041      0.43365      0
C        C     0.73065      0.24863      0.44893      0
C        C     0.67202      0.19592      0.45817      0
C        C     0.68104      0.2035       0.47345      0
C        C     0.53698      0.10215      0.46137      0
C        C     0.54663      0.10771      0.47665      0
C        C     0.48212      0.07378      0.48589      0
C        C     0.4918       0.07839      0.50117      0
C        C     0.34598      0.0273       0.48909      0
C        C     0.35519      0.0293       0.50437      0
C        C     0.29506      0.01956      0.51361      0
C        C     0.30387      0.02047      0.52889      0
C        C     0.17952      0.02778      0.51681      0
C        C     0.18682      0.02592      0.53209      0
C        C     0.14066      0.04191      0.54133      0
C        C     0.1472       0.03898      0.55661      0
C        C     0.06414      0.10352      0.54453      0
C        C     0.06837      0.09808      0.55981      0
C        C     0.04353      0.13726      0.56905      0
C        C     0.04675      0.13095      0.58433      0
C        C     0.01822      0.24244      0.57225      0
C        C     0.0187       0.2343       0.58753      0
C        C     0.01915      0.29042      0.59677      0
C        C     0.01853      0.28174      0.61205      0
C        C     0.04908      0.42241      0.59996      0
C        C     0.04574      0.41286      0.61525      0
C        C     0.0714       0.47699      0.62448      0
C        C     0.06705      0.46731      0.63977      0
C        C     0.1518       0.61475      0.62768      0
C        C     0.14517      0.60531      0.64296      0
C        C     0.19196      0.66722      0.6522       0
C        C     0.18456      0.6581       0.66748      0
C        C     0.31002      0.7888       0.6554       0
C        C     0.30115      0.78098      0.67068      0
C        C     0.3616       0.8308       0.67992      0
C        C     0.35235      0.82368      0.6952       0
C        C     0.49851      0.91682      0.68312      0
C        C     0.48882      0.91187      0.6984       0
C        C     0.55331      0.94166      0.70764      0
C        C     0.54367      0.93769      0.72292      0
C        C     0.68724      0.97842      0.71084      0
C        C     0.67827      0.97711      0.72612      0
C        C     0.73651      0.98214      0.73536      0
C        C     0.72802      0.98193      0.75064      0
C        C     0.84613      0.96377      0.73856      0
C        C     0.83931      0.96633      0.75384      0
C        C     0.88203      0.94578      0.76308      0
C        C     0.87604      0.94938      0.77836      0
C        C     0.94986      0.87521      0.76628      0
C        C     0.94628      0.88122      0.78156      0
C        C     0.96666      0.83837      0.7908       0
C        C     0.96413      0.8452       0.80608      0
C        C     0.97903      0.69196      0.39954      0
C        C     0.98004      0.70081      0.41482      0
C        C     0.96969      0.64046      0.42406      0
C        C     0.97178      0.6497       0.43934      0
C        C     0.91938      0.50364      0.42726      0
C        C     0.92407      0.51333      0.44254      0
C        C     0.88963      0.44883      0.45178      0
C        C     0.89526      0.45848      0.46706      0
C        C     0.79289      0.31475      0.45498      0
C        C     0.80053      0.32373      0.47026      0
C        C     0.74747      0.26536      0.4795       0
C        C     0.75574      0.27388      0.49478      0
C        C     0.61973      0.15537      0.48269      0
C        C     0.62909      0.16222      0.49797      0
C        C     0.56588      0.11929      0.50721      0
C        C     0.57546      0.12531      0.52249      0
C        C     0.42748      0.05092      0.51041      0
C        C     0.43707      0.05454      0.52569      0
C        C     0.37379      0.03389      0.53493      0
C        C     0.38316      0.03646      0.55021      0
C        C     0.24679      0.01804      0.53813      0
C        C     0.25509      0.01785      0.55341      0
C        C     0.20181      0.02277      0.56265      0
C        C     0.20948      0.02148      0.57793      0
C        C     0.10646      0.06197      0.56585      0
C        C     0.11214      0.05801      0.58113      0
C        C     0.07735      0.0877       0.59037      0
C        C     0.0821       0.08276      0.60565      0
C        C     0.02884      0.1757       0.59357      0
C        C     0.031        0.1686       0.60885      0
C        C     0.02025      0.21835      0.61809      0
C        C     0.02132      0.21054      0.63337      0
C        C     0.02631      0.34112      0.62129      0
C        C     0.0246       0.33201      0.63657      0
C        C     0.03961      0.39388      0.64581      0
C        C     0.03683      0.38445      0.66109      0
C        C     0.09928      0.53186      0.64901      0
C        C     0.09397      0.52219      0.66429      0
C        C     0.13234      0.58632      0.67353      0
C        C     0.12615      0.57677      0.68881      0
C        C     0.2361       0.71752      0.67672      0
C        C     0.22804      0.70883      0.692        0
C        C     0.28366      0.76501      0.70124      0
C        C     0.27505      0.75686      0.71652      0
C        C     0.41498      0.86852      0.70444      0
C        C     0.40546      0.86219      0.71972      0
C        C     0.46946      0.90146      0.72896      0
C        C     0.4598       0.89601      0.74424      0
C        C     0.60741      0.96078      0.73216      0
C        C     0.59795      0.95783      0.74744      0
C        C     0.66013      0.97393      0.75668      0
C        C     0.65096      0.97205      0.77196      0
C        C     0.78273      0.97961      0.75988      0
C        C     0.77482      0.98051      0.77516      0
C        C     0.82528      0.97087      0.7844       0
C        C     0.81806      0.97286      0.79968      0
C        C     0.91298      0.92201      0.7876       0
C        C     0.9079       0.92661      0.80288      0
C        C     0.93858      0.89277      0.81212      0
C        C     0.93447      0.89831      0.8274       0
C        C     0.97742      0.79715      0.81532      0
C        C     0.97597      0.80472      0.8306       0
C        C     0.982        0.75208      0.83984      0
C        C     0.98164      0.76029      0.85512      0
C        C     0.98147      0.71826      0.44538      0
C        C     0.98189      0.72685      0.46066      0
C        C     0.95426      0.58714      0.44858      0
C        C     0.95742      0.59665      0.46386      0
C        C     0.93295      0.53269      0.4731       0
C        C     0.93713      0.54235      0.48838      0
C        C     0.85483      0.39469      0.4763       0
C        C     0.86132      0.40416      0.49158      0
C        C     0.81544      0.3419       0.50082      0
C        C     0.8227       0.35109      0.5161       0
C        C     0.69885      0.21902      0.50402      0
C        C     0.70764      0.22695      0.5193       0
C        C     0.64765      0.17632      0.52854      0
C        C     0.65684      0.18356      0.54382      0
C        C     0.51118      0.08813      0.53173      0
C        C     0.52086      0.09325      0.54702      0
C        C     0.45633      0.06231      0.55625      0
C        C     0.46599      0.06647      0.57154      0
C        C     0.32173      0.02289      0.55945      0
C        C     0.33076      0.02438      0.57473      0
C        C     0.27198      0.01807      0.58397      0
C        C     0.28056      0.01846      0.59925      0
C        C     0.16069      0.03367      0.58717      0
C        C     0.16764      0.03131      0.60245      0
C        C     0.12396      0.05062      0.61169      0
C        C     0.1301       0.0472       0.62697      0
C        C     0.05372      0.11878      0.61489      0
C        C     0.05748      0.11293      0.63017      0
C        C     0.03587      0.1548       0.63941      0
C        C     0.03859      0.1481       0.65469      0
C        C     0.01788      0.26464      0.64261      0
C        C     0.01784      0.25623      0.65789      0
C        C     0.02175      0.31398      0.66713      0
C        C     0.02061      0.30508      0.68241      0
C        C     0.05887      0.44801      0.67033      0
C        C     0.05505      0.43839      0.68561      0
C        C     0.08385      0.50282      0.69485      0
C        C     0.07904      0.49313      0.71013      0
C        C     0.17017      0.63967      0.69805      0
C        C     0.16317      0.63036      0.71333      0
C        C     0.21227      0.6912       0.72257      0
C        C     0.20455      0.68227      0.73785      0
C        C     0.33403      0.80906      0.72576      0
C        C     0.32496      0.80156      0.74104      0
C        C     0.38654      0.84911      0.75028      0
C        C     0.37715      0.84236      0.76557      0
C        C     0.52434      0.9292       0.75348      0
C        C     0.51466      0.9247       0.76876      0
C        C     0.5789       0.95139      0.778        0
C        C     0.56932      0.94789      0.79328      0
C        C     0.71077      0.98094      0.7812       0
C        C     0.70201      0.98016      0.79648      0
C        C     0.75868      0.98173      0.80572      0
C        C     0.75045      0.98204      0.821        0
C        C     0.86361      0.95604      0.80892      0
C        C     0.85718      0.95909      0.8242       0
C        C     0.89724      0.93529      0.83344      0
C        C     0.89167      0.93937      0.84872      0
C        C     0.95851      0.85845      0.83664      0
C        C     0.95542      0.86486      0.85192      0
C        C     0.97249      0.81949      0.86116      0
C        C     0.97046      0.82668      0.87644      0
C        C     0.9754       0.66799      0.4699       0
C        C     0.97692      0.67704      0.48518      0
C        C     0.96317      0.61555      0.49442      0
C        C     0.96577      0.62493      0.5097       0
C        C     0.90603      0.47781      0.49762      0
C        C     0.91118      0.4875       0.5129       0
C        C     0.87385      0.42323      0.52214      0
C        C     0.8799       0.43281      0.53742      0
C        C     0.77196      0.29117      0.52534      0
C        C     0.7799       0.29994      0.54062      0
C        C     0.72495      0.24314      0.54986      0
C        C     0.73348      0.25139      0.56514      0
C        C     0.59454      0.13781      0.55306      0
C        C     0.60402      0.14427      0.56834      0
C        C     0.5402       0.10399      0.57758      0
C        C     0.54985      0.10959      0.59286      0
C        C     0.40205      0.04217      0.58077      0
C        C     0.41156      0.0453       0.59606      0
C        C     0.34904      0.02795      0.6053       0
C        C     0.35827      0.03002      0.62058      0
C        C     0.22518      0.01949      0.60849      0
C        C     0.2332       0.01878      0.62377      0
C        C     0.18194      0.02714      0.63301      0
C        C     0.18929      0.02534      0.64829      0
C        C     0.0921       0.07339      0.63621      0
C        C     0.09735      0.06896      0.65149      0
C        C     0.06553      0.10169      0.66073      0
C        C     0.06982      0.09631      0.67601      0
C        C     0.02403      0.19528      0.66393      0
C        C     0.02568      0.18783      0.67921      0
C        C     0.01836      0.23971      0.68845      0
C        C     0.01891      0.23161      0.70373      0
C        C     0.03182      0.36573      0.69165      0
C        C     0.02959      0.35646      0.70693      0
C        C     0.04795      0.41922      0.71617      0
C        C     0.04467      0.40969      0.73145      0
C        C     0.11421      0.55758      0.71937      0
C        C     0.10848      0.54795      0.73465      0
C        C     0.14958      0.61161      0.74389      0
C        C     0.14299      0.60216      0.75917      0
C        C     0.25809      0.74026      0.74709      0
C        C     0.24976      0.73181      0.76237      0
C        C     0.30705      0.7862       0.77161      0
C        C     0.29821      0.77835      0.78689      0
C        C     0.44053      0.88464      0.7748       0
C        C     0.43092      0.87872      0.79009      0
C        C     0.49528      0.91519      0.79932      0
C        C     0.48559      0.91018      0.81461      0
C        C     0.63244      0.96773      0.80252      0
C        C     0.62309      0.96528      0.8178       0
C        C     0.68426      0.978        0.82704      0
C        C     0.67527      0.97664      0.84232      0
C        C     0.80324      0.97627      0.83024      0
C        C     0.79565      0.97768      0.84552      0
C        C     0.84387      0.96464      0.85476      0
C        C     0.83701      0.96714      0.87004      0
C        C     0.92572      0.90891      0.85796      0
C        C     0.92108      0.91396      0.87324      0
C        C     0.94868      0.87723      0.88248      0
C        C     0.94505      0.88319      0.89776      0
C        C     0.98035      0.77638      0.88568      0
C        C     0.97941      0.78427      0.90096      0
C        C     0.97939      0.69492      0.51574      0
C        C     0.98033      0.70374      0.53102      0
C        C     0.94495      0.56161      0.51894      0
C        C     0.94859      0.57121      0.53422      0
C        C     0.92096      0.50687      0.54346      0
C        C     0.9256       0.51656      0.55874      0
C        C     0.83683      0.36964      0.54666      0
C        C     0.8437       0.37899      0.56194      0
C        C     0.79545      0.31773      0.57118      0
C        C     0.80305      0.32674      0.58646      0
C        C     0.67504      0.19844      0.57438      0
C        C     0.68403      0.20606      0.58966      0
C        C     0.62285      0.15764      0.5989       0
C        C     0.6322       0.16453      0.61418      0
C        C     0.48534      0.0753       0.6021       0
C        C     0.49503      0.07997      0.61738      0
C        C     0.43068      0.05211      0.62662      0
C        C     0.44028      0.05579      0.6419       0
C        C     0.29799      0.01984      0.62982      0
C        C     0.30682      0.02082      0.6451       0
C        C     0.24955      0.01796      0.65434      0
C        C     0.25788      0.01784      0.66962      0
C        C     0.14282      0.04091      0.65753      0
C        C     0.1494       0.03804      0.67281      0
C        C     0.10833      0.06063      0.68205      0
C        C     0.11406      0.05673      0.69733      0
C        C     0.04458      0.13514      0.68525      0
C        C     0.04786      0.12888      0.70053      0
C        C     0.02954      0.17332      0.70977      0
C        C     0.03176      0.16626      0.72505      0
C        C     0.01892      0.28752      0.71297      0
C        C     0.01837      0.27887      0.72825      0
C        C     0.02572      0.33808      0.73749      0
C        C     0.02407      0.32898      0.75277      0
C        C     0.06993      0.47376      0.74069      0
C        C     0.06564      0.46409      0.75597      0
C        C     0.09749      0.52864      0.76521      0
C        C     0.09224      0.51896      0.78049      0
C        C     0.18948      0.66418      0.76841      0
C        C     0.18213      0.65504      0.78369      0
C        C     0.2334       0.71463      0.79293      0
C        C     0.22538      0.70592      0.80821      0
C        C     0.35851      0.82844      0.79613      0
C        C     0.34928      0.82128      0.81141      0
C        C     0.41181      0.86643      0.82065      0
C        C     0.4023       0.86005      0.83593      0
C        C     0.5501       0.94036      0.82385      0
C        C     0.54045      0.93632      0.83913      0
C        C     0.60426      0.95982      0.84837      0
C        C     0.59478      0.95681      0.86365      0
C        C     0.7337       0.98209      0.85156      0
C        C     0.72517      0.98182      0.86684      0
C        C     0.7801       0.97993      0.87608      0
C        C     0.77216      0.98077      0.89136      0
C        C     0.88005      0.947        0.87928      0
C        C     0.87401      0.95054      0.89456      0
C        C     0.91131      0.92356      0.9038       0
C        C     0.90617      0.9281       0.91908      0
C        C     0.96584      0.84066      0.907        0
C        C     0.96324      0.84745      0.92228      0
C        C     0.97696      0.79969      0.93152      0
C        C     0.97544      0.80721      0.9468       0
C        C     0.97041      0.64354      0.54026      0
C        C     0.97244      0.65276      0.55554      0
C        C     0.95533      0.59031      0.56478      0
C        C     0.95843      0.59981      0.58006      0
C        C     0.89152      0.45205      0.56798      0
C        C     0.8971       0.4617       0.58326      0
C        C     0.85701      0.39784      0.5925       0
C        C     0.86345      0.40733      0.60778      0
C        C     0.75024      0.26819      0.5957       0
C        C     0.75847      0.27673      0.61098      0
C        C     0.70179      0.22165      0.62022      0
C        C     0.71055      0.22962      0.6355       0
C        C     0.56908      0.12128      0.62342      0
C        C     0.57865      0.12735      0.6387       0
C        C     0.51441      0.08982      0.64794      0
C        C     0.52409      0.095        0.66322      0
C        C     0.37691      0.03472      0.65114      0
C        C     0.3863       0.03736      0.66642      0
C        C     0.32473      0.02336      0.67566      0
C        C     0.33379      0.02492      0.69094      0
C        C     0.20435      0.02232      0.67886      0
C        C     0.21207      0.0211       0.69414      0
C        C     0.16299      0.03286      0.70338      0
C        C     0.16999      0.03056      0.71866      0
C        C     0.07892      0.08604      0.70657      0
C        C     0.08372      0.08115      0.72186      0
C        C     0.05495      0.11681      0.73109      0
C        C     0.05877      0.11101      0.74638      0
C        C     0.02059      0.21573      0.73429      0
C        C     0.02172      0.20797      0.74957      0
C        C     0.01785      0.26183      0.75881      0
C        C     0.01788      0.25345      0.77409      0
C        C     0.03866      0.39073      0.76201      0
C        C     0.03594      0.38132      0.77729      0
C        C     0.05758      0.4448       0.78653      0
C        C     0.05382      0.43519      0.80181      0
C        C     0.13026      0.58314      0.78973      0
C        C     0.12411      0.57358      0.80501      0
C        C     0.16782      0.63657      0.81425      0
C        C     0.16086      0.62725      0.82953      0
C        C     0.28078      0.7623       0.81745      0
C        C     0.2722       0.75412      0.83273      0
C        C     0.331        0.80658      0.84197      0
C        C     0.32196      0.79904      0.85725      0
C        C     0.46624      0.89966      0.84517      0
C        C     0.45658      0.89416      0.86045      0
C        C     0.52111      0.92772      0.86969      0
C        C     0.51143      0.92316      0.88497      0
C        C     0.65708      0.97333      0.87289      0
C        C     0.64789      0.97139      0.88817      0
C        C     0.70786      0.9807       0.89741      0
C        C     0.69908      0.97985      0.91269      0
C        C     0.82288      0.97156      0.9006       0
C        C     0.81562      0.97348      0.91588      0
C        C     0.86148      0.95708      0.92512      0
C        C     0.855        0.96007      0.94041      0
C        C     0.93723      0.89464      0.92832      0
C        C     0.93306      0.90012      0.9436       0
C        C     0.9575       0.8606       0.95284      0
C        C     0.95434      0.86696      0.96812      0
C        C     0.9819       0.75482      0.95604      0
C        C     0.98148      0.763        0.97132      0
C        C     0.98163      0.72113      0.56159      0
C        C     0.98199      0.7297       0.57687      0
C        C     0.97593      0.67102      0.58611      0
C        C     0.97739      0.68004      0.60139      0
C        C     0.93436      0.53591      0.5893       0
C        C     0.93848      0.54556      0.60458      0
C        C     0.90776      0.48104      0.61382      0
C        C     0.91285      0.49072      0.6291       0
C        C     0.81787      0.34496      0.61702      0
C        C     0.82509      0.35416      0.6323       0
C        C     0.77462      0.29408      0.64154      0
C        C     0.78252      0.30289      0.65682      0
C        C     0.65072      0.17872      0.64474      0
C        C     0.65989      0.18601      0.66002      0
C        C     0.5977       0.13995      0.66926      0
C        C     0.60717      0.14646      0.68454      0
C        C     0.45955      0.06368      0.67246      0
C        C     0.46921      0.06789      0.68774      0
C        C     0.40522      0.04319      0.69698      0
C        C     0.41474      0.04638      0.71226      0
C        C     0.27483      0.01818      0.70018      0
C        C     0.28344      0.01864      0.71546      0
C        C     0.22784      0.01923      0.7247       0
C        C     0.23589      0.01859      0.73998      0
C        C     0.12599      0.04946      0.7279       0
C        C     0.13218      0.0461       0.74318      0
C        C     0.09383      0.0719       0.75242      0
C        C     0.09914      0.06752      0.7677       0
C        C     0.03676      0.15255      0.75561      0
C        C     0.03954      0.1459       0.7709       0
C        C     0.02456      0.19279      0.78014      0
C        C     0.02627      0.18538      0.79542      0
C        C     0.02135      0.31101      0.78333      0
C        C     0.02028      0.30213      0.79861      0
C        C     0.03105      0.36264      0.80785      0
C        C     0.0289       0.35338      0.82313      0
C        C     0.08223      0.49959      0.81105      0
C        C     0.07747      0.4899       0.82633      0
C        C     0.11228      0.55438      0.83557      0
C        C     0.1066       0.54474      0.85085      0
C        C     0.20968      0.68823      0.83877      0
C        C     0.202        0.67927      0.85405      0
C        C     0.2553       0.73745      0.86329      0
C        C     0.24701      0.72897      0.87857      0
C        C     0.38341      0.84688      0.86649      0
C        C     0.37403      0.84008      0.88177      0
C        C     0.43732      0.88269      0.89101      0
C        C     0.42773      0.87671      0.90629      0
C        C     0.57571      0.95024      0.89421      0
C        C     0.56613      0.94669      0.90949      0
C        C     0.62933      0.96693      0.91873      0
C        C     0.61997      0.96442      0.93401      0
C        C     0.75595      0.98185      0.92193      0
C        C     0.74769      0.9821       0.93721      0
C        C     0.80072      0.97676      0.94645      0
C        C     0.79309      0.97811      0.96173      0
C        C     0.8954       0.93667      0.94964      0
C        C     0.88977      0.94069      0.96493      0
C        C     0.92419      0.91061      0.97416      0
C        C     0.9195       0.91561      0.98945      0
C        C     0.97183      0.8219       0.97736      0
C        C     0.96974      0.82905      0.99264      0
C        C     0.96406      0.61868      0.61063      0
C        C     0.9666       0.62805      0.62591      0
C        C     0.94618      0.56481      0.63515      0
C        C     0.94977      0.5744       0.65043      0
C        C     0.87589      0.42642      0.63834      0
C        C     0.88188      0.43601      0.65362      0
C        C     0.83914      0.37275      0.66286      0
C        C     0.84596      0.38212      0.67815      0
C        C     0.7278       0.24588      0.66606      0
C        C     0.7363       0.25416      0.68134      0
C        C     0.67804      0.20096      0.69058      0
C        C     0.68701      0.20862      0.70586      0
C        C     0.54342      0.10584      0.69378      0
C        C     0.55306      0.1115       0.70906      0
C        C     0.48857      0.07684      0.7183       0
C        C     0.49826      0.08157      0.73358      0
C        C     0.35211      0.02861      0.7215       0
C        C     0.36136      0.03075      0.73678      0
C        C     0.30092      0.02015      0.74602      0
C        C     0.30979      0.02119      0.7613       0
C        C     0.18438      0.02652      0.74922      0
C        C     0.19176      0.02478      0.7645       0
C        C     0.145        0.03993      0.77374      0
C        C     0.15163      0.03713      0.78902      0
C        C     0.06694      0.09988      0.77694      0
C        C     0.07129      0.09455      0.79222      0
C        C     0.04566      0.13304      0.80146      0
C        C     0.04899      0.12683      0.81674      0
C        C     0.01852      0.237        0.80466      0
C        C     0.01913      0.22893      0.81994      0
C        C     0.01872      0.28463      0.82918      0
C        C     0.01823      0.276        0.84446      0
C        C     0.04683      0.41604      0.83237      0
C        C     0.04361      0.40652      0.84765      0
C        C     0.06848      0.47054      0.85689      0
C        C     0.06425      0.46087      0.87217      0
C        C     0.14737      0.60846      0.86009      0
C        C     0.14083      0.599        0.87537      0
C        C     0.18701      0.66114      0.88461      0
C        C     0.17971      0.65198      0.89989      0
C        C     0.3041       0.7836       0.88781      0
C        C     0.29528      0.77571      0.90309      0
C        C     0.35543      0.82607      0.91233      0
C        C     0.34621      0.81887      0.92761      0
C        C     0.49205      0.91354      0.91553      0
C        C     0.48236      0.90847      0.93081      0
C        C     0.54688      0.93903      0.94005      0
C        C     0.53723      0.93494      0.95533      0
C        C     0.68127      0.97757      0.94325      0
C        C     0.67226      0.97614      0.95853      0
C        C     0.73086      0.98202      0.96777      0
C        C     0.72231      0.98169      0.98305      0
C        C     0.8416       0.96549      0.97097      0
C        C     0.83469      0.96793      0.98625      0
C        C     0.87805      0.9482       0.99549      0
C        C     0.94749      0.87923      0.99869      0
C        C     0.97972      0.69787      0.63195      0
C        C     0.9806       0.70666      0.64723      0
C        C     0.9711       0.64662      0.65647      0
C        C     0.97307      0.65582      0.67175      0
C        C     0.92253      0.5101       0.65967      0
C        C     0.92711      0.51979      0.67495      0
C        C     0.8934       0.45526      0.68419      0
C        C     0.89892      0.46492      0.69947      0
C        C     0.798        0.32073      0.68738      0
C        C     0.80555      0.32976      0.70267      0
C        C     0.75299      0.27103      0.7119       0
C        C     0.76119      0.2796       0.72719      0
C        C     0.62597      0.15992      0.7151       0
C        C     0.6353       0.16686      0.73038      0
C        C     0.57227      0.12329      0.73962      0
C        C     0.58184      0.12941      0.7549       0
C        C     0.43387      0.05331      0.74282      0
C        C     0.44348      0.05705      0.7581       0
C        C     0.38003      0.03558      0.76734      0
C        C     0.38944      0.03828      0.78262      0
C        C     0.25231      0.0179       0.77054      0
C        C     0.26068      0.01784      0.78582      0
C        C     0.20691      0.02189      0.79506      0
C        C     0.21466      0.02073      0.81034      0
C        C     0.11023      0.05931      0.79826      0
C        C     0.11601      0.05547      0.81354      0
C        C     0.0805       0.08439      0.82278      0
C        C     0.08536      0.07956      0.83806      0
C        C     0.03026      0.17095      0.82598      0
C        C     0.03254      0.16394      0.84126      0
C        C     0.02094      0.21313      0.8505       0
C        C     0.02214      0.2054       0.86578      0
C        C     0.02515      0.33504      0.8537       0
C        C     0.02356      0.32597      0.86898      0
C        C     0.03773      0.38759      0.87822      0
C        C     0.03507      0.37819      0.8935       0
C        C     0.09572      0.52541      0.88141      0
C        C     0.09052      0.51573      0.8967       0
C        C     0.12819      0.57996      0.90593      0
C        C     0.1221       0.57039      0.92122      0
C        C     0.23072      0.71174      0.90913      0
C        C     0.22274      0.70299      0.92441      0
C        C     0.27791      0.75959      0.93365      0
C        C     0.26935      0.75137      0.94893      0
C        C     0.40863      0.86432      0.93685      0
C        C     0.39914      0.8579       0.95213      0
C        C     0.46302      0.89785      0.96137      0
C        C     0.45337      0.89229      0.97665      0
C        C     0.60111      0.95884      0.96457      0
C        C     0.59161      0.95577      0.97985      0
C        C     0.65402      0.9727       0.98909      0
C        C     0.77747      0.98023      0.99229      0
C        C     0.98177      0.724        0.67779      0
C        C     0.98207      0.73253      0.69307      0
C        C     0.95639      0.59348      0.68099      0
C        C     0.95942      0.60297      0.69627      0
C        C     0.93575      0.53913      0.70551      0
C        C     0.93981      0.54878      0.72079      0
C        C     0.85917      0.401        0.70871      0
C        C     0.86556      0.4105       0.72399      0
C        C     0.82029      0.34802      0.73323      0
C        C     0.82747      0.35725      0.74851      0
C        C     0.70472      0.22429      0.73643      0
C        C     0.71345      0.2323       0.75171      0
C        C     0.65379      0.18113      0.76095      0
C        C     0.66294      0.18847      0.77623      0
C        C     0.51764      0.09153      0.76414      0
C        C     0.52731      0.09676      0.77942      0
C        C     0.46277      0.06506      0.78866      0
C        C     0.47244      0.06933      0.80394      0
C        C     0.32774      0.02386      0.79186      0
C        C     0.33683      0.02548      0.80714      0
C        C     0.27769      0.01831      0.81638      0
C        C     0.28633      0.01884      0.83166      0
C        C     0.16531      0.03207      0.81958      0
C        C     0.17235      0.02983      0.83486      0
C        C     0.12804      0.04832      0.8441       0
C        C     0.13428      0.04502      0.85938      0
C        C     0.05621      0.11486      0.8473       0
C        C     0.06008      0.10911      0.86258      0
C        C     0.03766      0.15032      0.87182      0
C        C     0.04051      0.14372      0.8871       0
C        C     0.01783      0.25903      0.87502      0
C        C     0.01793      0.25068      0.8903       0
C        C     0.02097      0.30804      0.89954      0
C        C     0.01996      0.29919      0.91482      0
C        C     0.0563       0.44159      0.90274      0
C        C     0.0526       0.43199      0.91802      0
C        C     0.08062      0.49636      0.92726      0
C        C     0.07593      0.48667      0.94254      0
C        C     0.16549      0.63347      0.93045      0
C        C     0.15858      0.62413      0.94574      0
C        C     0.20711      0.68525      0.95498      0
C        C     0.19947      0.67627      0.97026      0
C        C     0.32798      0.80408      0.95817      0
C        C     0.31896      0.7965       0.97345      0
C        C     0.38027      0.84463      0.98269      0
C        C     0.37091      0.83778      0.99797      0
C        C     0.51788      0.92622      0.98589      0
C        C     0.97644      0.67403      0.70231      0
C        C     0.97783      0.68303      0.71759      0
C        C     0.96493      0.62181      0.72683      0
C        C     0.9674       0.63116      0.74211      0
C        C     0.90948      0.48427      0.73003      0
C        C     0.91451      0.49395      0.74531      0
C        C     0.8779       0.42961      0.75455      0
C        C     0.88384      0.43921      0.76983      0
C        C     0.77726      0.29701      0.75775      0
C        C     0.78514      0.30584      0.77303      0
C        C     0.73065      0.24863      0.78227      0
C        C     0.73911      0.25695      0.79755      0
C        C     0.60086      0.1421       0.78547      0
C        C     0.61032      0.14867      0.80075      0
C        C     0.54663      0.10771      0.80999      0
C        C     0.55627      0.11342      0.82527      0
C        C     0.40839      0.04423      0.81318      0
C        C     0.41792      0.04749      0.82846      0
C        C     0.35519      0.0293       0.8377       0
C        C     0.36446      0.0315       0.85299      0
C        C     0.23051      0.019        0.8409       0
C        C     0.2386       0.01842      0.85618      0
C        C     0.18682      0.02592      0.86542      0
C        C     0.19425      0.02425      0.8807       0
C        C     0.09558      0.07042      0.86862      0
C        C     0.10094      0.06611      0.8839       0
C        C     0.06837      0.09808      0.89314      0
C        C     0.07277      0.09281      0.90842      0
C        C     0.02511      0.1903       0.89634      0
C        C     0.02688      0.18294      0.91162      0
C        C     0.0187       0.2343       0.92086      0
C        C     0.01938      0.22627      0.93614      0
C        C     0.03031      0.35954      0.92406      0
C        C     0.02822      0.3503       0.93934      0
C        C     0.04574      0.41286      0.94858      0
C        C     0.04258      0.40335      0.96386      0
C        C     0.11037      0.55117      0.95178      0
C        C     0.10474      0.54152      0.96706      0
C        C     0.14517      0.60531      0.9763       0
C        C     0.13868      0.59584      0.99158      0
C        C     0.25253      0.73464      0.9795       0
C        C     0.24426      0.72612      0.99478      0
C        C     0.98004      0.70081      0.74815      0
C        C     0.98085      0.70958      0.76343      0
C        C     0.9474       0.56801      0.75135      0
C        C     0.95092      0.57759      0.76663      0
C        C     0.92407      0.51333      0.77587      0
C        C     0.9286       0.52301      0.79115      0
C        C     0.84142      0.37587      0.77907      0
C        C     0.8482       0.38525      0.79435      0
C        C     0.80053      0.32373      0.80359      0
C        C     0.80804      0.33278      0.81887      0
C        C     0.68104      0.2035       0.80679      0
C        C     0.68998      0.2112       0.82207      0
C        C     0.62909      0.16222      0.83131      0
C        C     0.6384       0.1692       0.84659      0
C        C     0.4918       0.07839      0.83451      0
C        C     0.50149      0.08318      0.84979      0
C        C     0.43707      0.05454      0.85903      0
C        C     0.44669      0.05834      0.87431      0
C        C     0.30387      0.02047      0.86222      0
C        C     0.31276      0.02158      0.87751      0
C        C     0.25509      0.01785      0.88674      0
C        C     0.26349      0.01786      0.90203      0
C        C     0.1472       0.03898      0.88994      0
C        C     0.15387      0.03623      0.90522      0
C        C     0.11214      0.05801      0.91446      0
C        C     0.11797      0.05422      0.92974      0
C        C     0.04675      0.13095      0.91766      0
C        C     0.05014      0.12479      0.93294      0
C        C     0.031        0.1686       0.94218      0
C        C     0.03334      0.16163      0.95746      0
C        C     0.01853      0.28174      0.94538      0
C        C     0.01811      0.27315      0.96066      0
C        C     0.0246       0.33201      0.9699       0
C        C     0.02308      0.32296      0.98518      0
C        C     0.06705      0.46731      0.9731       0
C        C     0.06287      0.45765      0.98838      0
C        C     0.09397      0.52219      0.99762      0
C        C     0.97178      0.6497       0.77267      0
C        C     0.97369      0.65888      0.78795      0
C        C     0.95742      0.59665      0.79719      0
C        C     0.96039      0.60612      0.81247      0
C        C     0.89526      0.45848      0.80039      0
C        C     0.90072      0.46814      0.81567      0
C        C     0.86132      0.40416      0.82491      0
C        C     0.86766      0.41368      0.84019      0
C        C     0.75574      0.27388      0.82811      0
C        C     0.7639       0.28248      0.84339      0
C        C     0.70764      0.22695      0.85263      0
C        C     0.71634      0.23499      0.86791      0
C        C     0.57546      0.12531      0.85583      0
C        C     0.58502      0.13148      0.87111      0
C        C     0.52086      0.09325      0.88035      0
C        C     0.53054      0.09854      0.89563      0
C        C     0.38316      0.03646      0.88355      0
C        C     0.39259      0.03922      0.89883      0
C        C     0.33076      0.02438      0.90807      0
C        C     0.33987      0.02607      0.92335      0
C        C     0.20948      0.02148      0.91127      0
C        C     0.21727      0.02039      0.92655      0
C        C     0.16764      0.03131      0.93579      0
C        C     0.17472      0.02913      0.95107      0
C        C     0.0821       0.08276      0.93898      0
C        C     0.08702      0.07799      0.95426      0
C        C     0.05748      0.11293      0.9635       0
C        C     0.06142      0.10723      0.97878      0
C        C     0.02132      0.21054      0.9667       0
C        C     0.02258      0.20285      0.98198      0
C        C     0.01784      0.25623      0.99122      0
C        C     0.03683      0.38445      0.99442      0
C        C     0.98189      0.72685      0.79399      0
C        C     0.98212      0.73536      0.80928      0
C        C     0.97692      0.67704      0.81851      0
C        C     0.97825      0.68602      0.8338       0
C        C     0.93713      0.54235      0.82171      0
C        C     0.94113      0.55199      0.83699      0
C        C     0.91118      0.4875       0.84623      0
C        C     0.91615      0.49718      0.86151      0
C        C     0.8227       0.35109      0.84943      0
C        C     0.82983      0.36033      0.86471      0
C        C     0.7799       0.29994      0.87395      0
C        C     0.78773      0.3088       0.88923      0
C        C     0.65684      0.18356      0.87715      0
C        C     0.66597      0.19094      0.89243      0
C        C     0.60402      0.14427      0.90167      0
C        C     0.61346      0.15089      0.91695      0
C        C     0.46599      0.06647      0.90487      0
C        C     0.47566      0.0708       0.92015      0
C        C     0.41156      0.0453       0.92939      0
C        C     0.4211       0.04861      0.94467      0
C        C     0.28056      0.01846      0.93259      0
C        C     0.28923      0.01906      0.94787      0
C        C     0.2332       0.01878      0.95711      0
C        C     0.24132      0.01827      0.97239      0
C        C     0.1301       0.0472       0.96031      0
C        C     0.13639      0.04396      0.97559      0
C        C     0.09735      0.06896      0.98483      0
C        C     0.03859      0.1481       0.98802      0
C        C     0.96577      0.62493      0.84303      0
C        C     0.96818      0.63427      0.85832      0
C        C     0.94859      0.57121      0.86756      0
C        C     0.95205      0.58078      0.88284      0
C        C     0.8799       0.43281      0.87075      0
C        C     0.88579      0.44242      0.88603      0
C        C     0.8437       0.37899      0.89527      0
C        C     0.85042      0.38839      0.91055      0
C        C     0.73348      0.25139      0.89847      0
C        C     0.74191      0.25974      0.91375      0
C        C     0.68403      0.20606      0.92299      0
C        C     0.69295      0.2138       0.93827      0
C        C     0.54985      0.10959      0.92619      0
C        C     0.55947      0.11536      0.94147      0
C        C     0.49503      0.07997      0.95071      0
C        C     0.50472      0.08481      0.96599      0
C        C     0.35827      0.03002      0.95391      0
C        C     0.36756      0.03227      0.96919      0
C        C     0.30682      0.02082      0.97843      0
C        C     0.31574      0.022        0.99371      0
C        C     0.18929      0.02534      0.98163      0
C        C     0.19676      0.02373      0.99691      0
C        C     0.98033      0.70374      0.86436      0
C        C     0.98108      0.71248      0.87964      0
C        C     0.97244      0.65276      0.88888      0
C        C     0.97428      0.66192      0.90416      0
C        C     0.9256       0.51656      0.89208      0
C        C     0.93007      0.52624      0.90736      0
C        C     0.8971       0.4617       0.9166       0
C        C     0.90251      0.47136      0.93188      0
C        C     0.80305      0.32674      0.91979      0
C        C     0.81052      0.33582      0.93507      0
C        C     0.75847      0.27673      0.94431      0
C        C     0.7666       0.28537      0.95959      0
C        C     0.6322       0.16453      0.94751      0
C        C     0.64149      0.17156      0.96279      0
C        C     0.57865      0.12735      0.97203      0
C        C     0.58819      0.13357      0.98731      0
C        C     0.44028      0.05579      0.97523      0
C        C     0.4499       0.05964      0.99051      0
C        C     0.3863       0.03736      0.99975      0
C        C     0.98199      0.7297       0.9102       0
C        C     0.98215      0.73817      0.92548      0
C        C     0.95843      0.59981      0.9134       0
C        C     0.96134      0.60927      0.92868      0
C        C     0.93848      0.54556      0.93792      0
C        C     0.94242      0.5552       0.9532       0
C        C     0.86345      0.40733      0.94112      0
C        C     0.86974      0.41686      0.9564       0
C        C     0.82509      0.35416      0.96564      0
C        C     0.83218      0.36343      0.98092      0
C        C     0.71055      0.22962      0.96883      0
C        C     0.71922      0.2377       0.98412      0
C        C     0.65989      0.18601      0.99335      0
C        C     0.52409      0.095        0.99655      0
C        C     0.97739      0.68004      0.93472      0
C        C     0.97865      0.68899      0.95         0
C        C     0.9666       0.62805      0.95924      0
C        C     0.96895      0.63736      0.97452      0
C        C     0.91285      0.49072      0.96244      0
C        C     0.91777      0.50041      0.97772      0
C        C     0.88188      0.43601      0.98696      0
C        C     0.78252      0.30289      0.99016      0
C        C     0.9806       0.70666      0.98056      0
C        C     0.98128      0.71537      0.99584      0
C        C     0.94977      0.5744       0.98376      0
C        C     0.95317      0.58396      0.99904      0


