data_IRMOF-11

_audit_creation_method RASPA-1.0
_audit_creation_date 2011-3-7
_audit_author_name 'Tina Duren/Houston Frost/Randall Snurr/David Dubbeldam'

_citation_author_name        'M. Eddaoudi, J. Kim, N. Rosi, D. Vodak, J. Wachter, M. Oâ€™Keeffe, and O.M. Yaghi',
_citation_title              'Systematic design of pore size and functionality in isoreticular MOFs and their application in methane storage'
_citation_journal_abbrev     'Science'
_citation_journal_volume     295
_citation_journal_number     5554
_citation_page_first         469
_citation_page_last          472
_citation_year               2002

_cell_length_a    24.8217
_cell_length_b    42.9924
_cell_length_c    56.7343
_cell_angle_alpha 90
_cell_angle_beta  90
_cell_angle_gamma 90
_cell_volume      60543.7

_symmetry_cell_setting          triclinic
_symmetry_space_group_name_Hall 'P 1'
_symmetry_space_group_name_H-M  'P 1'
_symmetry_Int_Tables_number     1

_symmetry_equiv_pos_as_xyz 'x,y,z'

loop_
_atom_site_label
_atom_site_type_symbol
_atom_site_fract_x
_atom_site_fract_y
_atom_site_fract_z
_atom_site_charge
C4       C      0.26815    0.21111    0.09192    0 
C4       C      0.76816    0.7111     0.09192    0 
C3       C      0.31082    0.19808    0.10443    0 
C3       C      0.81082    0.69808    0.10443    0 
H1       H      0.31005    0.17698    0.10803    0 
H1       H      0.81006    0.67698    0.10803    0 
C2       C      0.35364    0.21546    0.11154    0 
C2       C      0.85365    0.71545    0.11154    0 
C6       C      0.18895    0.20338    0.06615    0 
C6       C      0.68895    0.70338    0.06615    0 
C6       C      0.21235    0.19817    0.09047    0 
C6       C      0.71236    0.69817    0.09047    0 
C1       C      0.10092    0.29968    0.03236    0 
C1       C      0.60093    0.79968    0.03236    0 
C1       C      0.39824    0.20057    0.12617    0 
C1       C      0.89825    0.70057    0.12617    0 
O2       O      0.93813    0.28145    0.0261     0 
O2       O      0.43812    0.78144    0.0261     0 
O2       O      0.60677    0.17266    0.1307     0 
O2       O      0.10676    0.67265    0.1307     0 
C6       C      0.75962    0.05848    0.20393    0 
C6       C      0.25961    0.55847    0.20393    0 
C3       C      0.85792    0.25281    0.05244    0 
C3       C      0.35791    0.75281    0.05244    0 
H1       H      0.88652    0.24095    0.04687    0 
H1       H      0.38652    0.74094    0.04687    0 
C4       C      0.81598    0.23879    0.0653     0 
C4       C      0.31597    0.73878    0.0653     0 
C4       C      0.73186    0.21111    0.09192    0 
C4       C      0.23185    0.7111     0.09192    0 
C3       C      0.68916    0.19808    0.10443    0 
C3       C      0.18915    0.69808    0.10443    0 
H1       H      0.68996    0.17698    0.10803    0 
H1       H      0.18995    0.67698    0.10803    0 
C6       C      0.81106    0.20338    0.06615    0 
C6       C      0.31106    0.70338    0.06615    0 
C6       C      0.78766    0.19817    0.09049    0 
C6       C      0.28765    0.69817    0.09049    0 
O2       O      0.95312    0.39023    0.0261     0 
O2       O      0.45311    0.89023    0.0261     0 
O2       O      0.45561    0.11028    0.1307     0 
O2       O      0.95562    0.61027    0.1307     0 
C6       C      0.25248    0.10974    0.28334    0 
C6       C      0.75249    0.60974    0.28334    0 
C3       C      0.9503     0.44464    0.05244    0 
C3       C      0.45029    0.94463    0.05244    0 
H1       H      0.91819    0.43629    0.04687    0 
H1       H      0.41818    0.93628    0.04687    0 
C4       C      0.95022    0.47262    0.0653     0 
C4       C      0.45021    0.97261    0.0653     0 
C4       C      0.45073    0.02852    0.09192    0 
C4       C      0.95074    0.52851    0.09192    0 
C3       C      0.45255    0.05638    0.10443    0 
C3       C      0.95255    0.55638    0.10443    0 
H1       H      0.42048    0.06652    0.10803    0 
H1       H      0.92048    0.56652    0.10803    0 
C6       C      0.89958    0.49278    0.06615    0 
C6       C      0.39957    0.99278    0.06615    0 
C6       C      0.40344    0.00707    0.09047    0 
C6       C      0.90344    0.50707    0.09047    0 
O2       O      0.10878    0.32834    0.0261     0 
O2       O      0.60878    0.82833    0.0261     0 
O2       O      0.43764    0.21706    0.1307     0 
O2       O      0.93765    0.71706    0.1307     0 
C6       C      0.53252    0.35057    0.20393    0 
C6       C      0.03251    0.85057    0.20393    0 
C3       C      0.19181    0.30254    0.05244    0 
C3       C      0.69181    0.80254    0.05244    0 
H1       H      0.19531    0.32278    0.04687    0 
H1       H      0.69532    0.82277    0.04687    0 
C4       C      0.23383    0.28859    0.0653     0 
C4       C      0.73383    0.78858    0.0653     0 
C4       C      0.31742    0.26037    0.09192    0 
C4       C      0.81743    0.76037    0.09192    0 
C3       C      0.35832    0.24556    0.10443    0 
C3       C      0.85832    0.74555    0.10443    0 
H1       H      0.38954    0.25649    0.10803    0 
H1       H      0.88954    0.75648    0.10803    0 
C6       C      0.28938    0.30382    0.06615    0 
C6       C      0.78939    0.80382    0.06615    0 
C6       C      0.30888    0.29475    0.09047    0 
C6       C      0.80889    0.79475    0.09047    0 
Zn1      Zn     0          0          0.29502    0 
Zn1      Zn     0.50001    0.5        0.29502    0 
Zn1      Zn     0.06438    0.02147    0.34052    0 
Zn1      Zn     0.56439    0.52146    0.34052    0 
Zn1      Zn     0.06232    0.31257    0.48406    0 
Zn1      Zn     0.56233    0.81256    0.48406    0 
Zn1      Zn     0          0.33334    0.53202    0 
Zn1      Zn     0.50001    0.83333    0.53202    0 
O1       O      0          0          0.32892    0 
O1       O      0.50001    0.5        0.32892    0 
O1       O      0          0.33334    0.49619    0 
O1       O      0.50001    0.83333    0.49619    0 
O2       O      0.43768    0.18743    0.6146     0 
O2       O      0.93769    0.68742    0.6146     0 
O2       O      0.39397    0.20201    0.64714    0 
O2       O      0.89398    0.70201    0.64714    0 
O2       O      0.11289    0.2957     0.50645    0 
O2       O      0.61289    0.7957     0.50645    0 
O2       O      0.06913    0.31029    0.53763    0 
O2       O      0.56914    0.81028    0.53763    0 
O2       O      0.04689    0.05689    0.35945    0 
O2       O      0.5469     0.55689    0.35945    0 
O2       O      0.0444     0.27696    0.46402    0 
O2       O      0.5444     0.77695    0.46402    0 
C3       C      0.35795    0.21401    0.58666    0 
C3       C      0.85796    0.71401    0.58666    0 
H1       H      0.38692    0.20436    0.57926    0 
H1       H      0.88693    0.70436    0.57926    0 
C2       C      0.35634    0.21455    0.60963    0 
C2       C      0.85635    0.71454    0.60963    0 
C3       C      0.31408    0.22865    0.62038    0 
C3       C      0.81409    0.72864    0.62038    0 
H1       H      0.31283    0.22904    0.63678    0 
H1       H      0.81284    0.72904    0.63678    0 
C6       C      0.19177    0.2694     0.60625    0 
C6       C      0.69177    0.76939    0.60625    0 
C3       C      0.14874    0.28375    0.56659    0 
C3       C      0.64875    0.78374    0.56659    0 
H1       H      0.12006    0.29331    0.57424    0 
H1       H      0.62006    0.7933     0.57424    0 
C2       C      0.15124    0.28291    0.54246    0 
C2       C      0.65124    0.78291    0.54246    0 
C3       C      0.19149    0.26951    0.53292    0 
C3       C      0.69149    0.76951    0.53292    0 
H1       H      0.19394    0.26868    0.51658    0 
H1       H      0.69395    0.76867    0.51658    0 
C6       C      0.31916    0.22695    0.54653    0 
C6       C      0.81916    0.72694    0.54653    0 
C4       C      0.31779    0.22741    0.57283    0 
C4       C      0.81779    0.72741    0.57283    0 
C5       C      0.275      0.24167    0.58353    0 
C5       C      0.77501    0.74167    0.58353    0 
C4       C      0.27174    0.24276    0.60752    0 
C4       C      0.77174    0.74276    0.60752    0 
C4       C      0.19104    0.26965    0.5796     0 
C4       C      0.69105    0.76965    0.5796     0 
C5       C      0.23206    0.25598    0.56893    0 
C5       C      0.73206    0.75597    0.56893    0 
C4       C      0.23226    0.25591    0.54676    0 
C4       C      0.73226    0.7559     0.54676    0 
C1       C      0.39884    0.20038    0.62497    0 
C1       C      0.89885    0.70038    0.62497    0 
C1       C      0.10583    0.29805    0.52788    0 
C1       C      0.60584    0.79805    0.52788    0 
C2       C      0          0.09599    0.38144    0 
C2       C      0.50001    0.59599    0.38144    0 
C3       C      0.04971    0.1113     0.38578    0 
C3       C      0.54972    0.61129    0.38578    0 
H1       H      0.08182    0.10295    0.38019    0 
H1       H      0.58183    0.60294    0.38019    0 
C4       C      0.0498     0.13928    0.39863    0 
C4       C      0.5498     0.63928    0.39863    0 
C5       C      0          0.15142    0.40594    0 
C5       C      0.50001    0.65142    0.40594    0 
C5       C      0          0.18061    0.42003    0 
C5       C      0.50001    0.68061    0.42003    0 
C4       C      0.04927    0.1952     0.42526    0 
C4       C      0.54928    0.69519    0.42526    0 
C3       C      0.04746    0.22304    0.43778    0 
C3       C      0.54746    0.72303    0.43778    0 
H1       H      0.07953    0.2332     0.44136    0 
H1       H      0.57953    0.7332     0.44136    0 
C2       C      0          0.23576    0.44488    0 
C2       C      0.50001    0.73576    0.44488    0 
C6       C      0.10044    0.15945    0.39948    0 
C6       C      0.60044    0.65944    0.39948    0 
C6       C      0.09657    0.17375    0.42382    0 
C6       C      0.59657    0.67375    0.42382    0 
C1       C      0          0.06729    0.3657     0 
C1       C      0.50001    0.56729    0.3657     0 
C1       C      0          0.26551    0.45949    0 
C1       C      0.50001    0.76551    0.45949    0 
Zn1      Zn     0.93559    0.02147    0.34052    0 
Zn1      Zn     0.43559    0.52146    0.34052    0 
Zn1      Zn     0          0.37488    0.48406    0 
Zn1      Zn     0.50001    0.87488    0.48406    0 
O2       O      0.50001    0.12514    0.6146     0 
O2       O      0          0.62513    0.6146     0 
O2       O      0.50001    0.09599    0.64714    0 
O2       O      0          0.59599    0.64714    0 
O2       O      0          0.40858    0.50645    0 
O2       O      0.50001    0.90858    0.50645    0 
O2       O      0          0.37942    0.53763    0 
O2       O      0.50001    0.87941    0.53763    0 
O2       O      0.39123    0.49499    0.35945    0 
O2       O      0.89124    0.99499    0.35945    0 
O2       O      0.06236    0.38374    0.46402    0 
O2       O      0.56237    0.88374    0.46402    0 
C3       C      0.50001    0.07197    0.58666    0 
C3       C      0          0.57196    0.58666    0 
H1       H      0.50001    0.09127    0.57926    0 
H1       H      0          0.59127    0.57926    0 
C2       C      0.50001    0.0709     0.60963    0 
C2       C      0          0.57089    0.60963    0 
C3       C      0.50001    0.04271    0.62038    0 
C3       C      0          0.5427     0.62038    0 
H1       H      0.50001    0.04189    0.63678    0 
H1       H      0          0.54189    0.63678    0 
C6       C      0.96166    0.48557    0.61666    0 
C6       C      0.46165    0.98557    0.61666    0 
C6       C      0          0.4612     0.60625    0 
C6       C      0.50001    0.96119    0.60625    0 
C3       C      0          0.4325     0.56659    0 
C3       C      0.50001    0.93249    0.56659    0 
H1       H      0          0.41338    0.57424    0 
H1       H      0.50001    0.91337    0.57424    0 
C2       C      0          0.43417    0.54246    0 
C2       C      0.50001    0.93417    0.54246    0 
C3       C      0          0.46099    0.53292    0 
C3       C      0.50001    0.96098    0.53292    0 
H1       H      0          0.46264    0.51658    0 
H1       H      0.50001    0.96264    0.51658    0 
C6       C      0.50001    0.0461     0.54653    0 
C6       C      0          0.5461     0.54653    0 
C4       C      0.50001    0.04519    0.57283    0 
C4       C      0          0.54519    0.57283    0 
C5       C      0.50001    0.01665    0.58353    0 
C5       C      0          0.51665    0.58353    0 
C4       C      0.50001    0.01449    0.60752    0 
C4       C      0          0.51449    0.60752    0 
C4       C      0          0.46069    0.5796     0 
C4       C      0.50001    0.96068    0.5796     0 
C5       C      0          0.48804    0.56893    0 
C5       C      0.50001    0.98804    0.56893    0 
C4       C      0          0.48818    0.54676    0 
C4       C      0.50001    0.98817    0.54676    0 
C1       C      0.50001    0.09925    0.62497    0 
C1       C      0          0.59925    0.62497    0 
C1       C      0          0.40389    0.52788    0 
C1       C      0.50001    0.90388    0.52788    0 
C2       C      0.35598    0.45201    0.38144    0 
C2       C      0.85598    0.95201    0.38144    0 
C3       C      0.30816    0.46922    0.38578    0 
C3       C      0.80816    0.96922    0.38578    0 
H1       H      0.30465    0.48946    0.38019    0 
H1       H      0.80466    0.98945    0.38019    0 
C4       C      0.26618    0.45524    0.39863    0 
C4       C      0.76618    0.95524    0.39863    0 
C5       C      0.27287    0.42428    0.40594    0 
C5       C      0.77287    0.92428    0.40594    0 
C5       C      0.22907    0.4097     0.42003    0 
C5       C      0.72908    0.9097     0.42003    0 
C4       C      0.18258    0.42703    0.42526    0 
C4       C      0.68259    0.92702    0.42526    0 
C3       C      0.14169    0.41221    0.43778    0 
C3       C      0.6417     0.91221    0.43778    0 
H1       H      0.11043    0.42317    0.44136    0 
H1       H      0.61043    0.92316    0.44136    0 
C2       C      0.14636    0.38211    0.44488    0 
C2       C      0.64637    0.88211    0.44488    0 
C6       C      0.21058    0.4705     0.39948    0 
C6       C      0.71059    0.9705     0.39948    0 
C6       C      0.19112    0.46141    0.42382    0 
C6       C      0.69113    0.9614     0.42382    0 
C1       C      0.39905    0.46636    0.3657     0 
C1       C      0.89905    0.96636    0.3657     0 
C1       C      0.10173    0.36725    0.45949    0 
C1       C      0.60173    0.86725    0.45949    0 
Zn1      Zn     0.50001    0.45708    0.34052    0 
Zn1      Zn     0          0.95708    0.34052    0 
Zn1      Zn     0.93769    0.31257    0.48406    0 
Zn1      Zn     0.43768    0.81256    0.48406    0 
O2       O      0.56229    0.18743    0.6146     0 
O2       O      0.06228    0.68742    0.6146     0 
O2       O      0.606      0.20201    0.64714    0 
O2       O      0.106      0.70201    0.64714    0 
O2       O      0.88713    0.2957     0.50645    0 
O2       O      0.38712    0.7957     0.50645    0 
O2       O      0.93088    0.31029    0.53763    0 
O2       O      0.43087    0.81028    0.53763    0 
O2       O      0.56193    0.4481     0.35945    0 
O2       O      0.06192    0.9481     0.35945    0 
O2       O      0.89321    0.33932    0.46402    0 
O2       O      0.3932     0.83931    0.46402    0 
C3       C      0.64206    0.21401    0.58666    0 
C3       C      0.14205    0.71401    0.58666    0 
H1       H      0.61309    0.20436    0.57926    0 
H1       H      0.11309    0.70436    0.57926    0 
C2       C      0.64363    0.21455    0.60963    0 
C2       C      0.14362    0.71454    0.60963    0 
C3       C      0.68593    0.22865    0.62038    0 
C3       C      0.18593    0.72864    0.62038    0 
H1       H      0.68714    0.22904    0.63678    0 
H1       H      0.18713    0.72904    0.63678    0 
C6       C      0.79084    0.23804    0.61666    0 
C6       C      0.29083    0.73804    0.61666    0 
C6       C      0.8082     0.2694     0.60625    0 
C6       C      0.3082     0.76939    0.60625    0 
C3       C      0.85127    0.28375    0.56659    0 
C3       C      0.35127    0.78374    0.56659    0 
H1       H      0.87996    0.29331    0.57424    0 
H1       H      0.37995    0.7933     0.57424    0 
C2       C      0.84877    0.28291    0.54246    0 
C2       C      0.34877    0.78291    0.54246    0 
C3       C      0.80853    0.26951    0.53292    0 
C3       C      0.30852    0.76951    0.53292    0 
H1       H      0.80607    0.26868    0.51658    0 
H1       H      0.30606    0.76867    0.51658    0 
C6       C      0.68086    0.22695    0.54653    0 
C6       C      0.18085    0.72694    0.54653    0 
C4       C      0.68223    0.22741    0.57283    0 
C4       C      0.18222    0.72741    0.57283    0 
C5       C      0.72501    0.24167    0.58353    0 
C5       C      0.225      0.74167    0.58353    0 
C4       C      0.72827    0.24276    0.60752    0 
C4       C      0.22827    0.74276    0.60752    0 
C4       C      0.80897    0.26965    0.5796     0 
C4       C      0.30896    0.76965    0.5796     0 
C5       C      0.76796    0.25598    0.56893    0 
C5       C      0.26795    0.75597    0.56893    0 
C4       C      0.76776    0.25591    0.54676    0 
C4       C      0.26775    0.7559     0.54676    0 
C1       C      0.60113    0.20038    0.62497    0 
C1       C      0.10112    0.70038    0.62497    0 
C1       C      0.89418    0.29805    0.52788    0 
C1       C      0.39417    0.79805    0.52788    0 
C2       C      0.64399    0.45201    0.38144    0 
C2       C      0.14399    0.95201    0.38144    0 
C3       C      0.6421     0.41947    0.38578    0 
C3       C      0.14209    0.91946    0.38578    0 
H1       H      0.6135     0.40761    0.38019    0 
H1       H      0.11349    0.9076     0.38019    0 
C4       C      0.68404    0.40547    0.39863    0 
C4       C      0.18403    0.90546    0.39863    0 
C5       C      0.72715    0.42428    0.40594    0 
C5       C      0.22714    0.92428    0.40594    0 
C5       C      0.77094    0.4097     0.42003    0 
C5       C      0.27093    0.9097     0.42003    0 
C4       C      0.76816    0.37776    0.42526    0 
C4       C      0.26815    0.87776    0.42526    0 
C3       C      0.81086    0.36474    0.43778    0 
C3       C      0.31086    0.86473    0.43778    0 
H1       H      0.81006    0.34364    0.44136    0 
H1       H      0.31005    0.84364    0.44136    0 
C2       C      0.85365    0.38211    0.44488    0 
C2       C      0.35364    0.88211    0.44488    0 
C6       C      0.68895    0.37004    0.39948    0 
C6       C      0.18895    0.87004    0.39948    0 
C6       C      0.71236    0.36486    0.42382    0 
C6       C      0.21235    0.86485    0.42382    0 
C1       C      0.60097    0.46636    0.3657     0 
C1       C      0.10096    0.96636    0.3657     0 
C1       C      0.89829    0.36725    0.45949    0 
C1       C      0.39828    0.86725    0.45949    0 
O2       O      0.43808    0.4481     0.35945    0 
O2       O      0.93809    0.9481     0.35945    0 
O2       O      0.1068     0.33932    0.46402    0 
O2       O      0.60681    0.83931    0.46402    0 
C6       C      0.20917    0.23804    0.61666    0 
C6       C      0.70918    0.73804    0.61666    0 
C6       C      0.25961    0.22513    0.53728    0 
C6       C      0.75962    0.72513    0.53728    0 
C3       C      0.35791    0.41947    0.38578    0 
C3       C      0.85792    0.91946    0.38578    0 
H1       H      0.38652    0.40761    0.38019    0 
H1       H      0.88652    0.9076     0.38019    0 
C4       C      0.31597    0.40547    0.39863    0 
C4       C      0.81598    0.90546    0.39863    0 
C4       C      0.23185    0.37776    0.42526    0 
C4       C      0.73186    0.87776    0.42526    0 
C3       C      0.18919    0.36474    0.43778    0 
C3       C      0.6892     0.86473    0.43778    0 
H1       H      0.18995    0.34364    0.44136    0 
H1       H      0.68996    0.84364    0.44136    0 
C6       C      0.31106    0.37004    0.39948    0 
C6       C      0.81106    0.87004    0.39948    0 
C6       C      0.28765    0.36486    0.42382    0 
C6       C      0.78766    0.86485    0.42382    0 
O2       O      0.95312    0.05689    0.35945    0 
O2       O      0.45311    0.55689    0.35945    0 
O2       O      0.95562    0.27696    0.46402    0 
O2       O      0.45561    0.77695    0.46402    0 
C6       C      0.70789    0.25763    0.53728    0 
C6       C      0.20788    0.75762    0.53728    0 
C3       C      0.95026    0.1113     0.38578    0 
C3       C      0.45025    0.61129    0.38578    0 
H1       H      0.91819    0.10295    0.38019    0 
H1       H      0.41818    0.60294    0.38019    0 
C4       C      0.95022    0.13928    0.39863    0 
C4       C      0.45021    0.63928    0.39863    0 
C4       C      0.95074    0.1952     0.42526    0 
C4       C      0.45073    0.69519    0.42526    0 
C3       C      0.95255    0.22304    0.43778    0 
C3       C      0.45255    0.72303    0.43778    0 
H1       H      0.92048    0.2332     0.44136    0 
H1       H      0.42048    0.7332     0.44136    0 
C6       C      0.89958    0.15945    0.39948    0 
C6       C      0.39957    0.65944    0.39948    0 
C6       C      0.90344    0.17375    0.42382    0 
C6       C      0.40344    0.67375    0.42382    0 
O2       O      0.60878    0.49499    0.35945    0 
O2       O      0.10878    0.99499    0.35945    0 
O2       O      0.93765    0.38374    0.46402    0 
O2       O      0.43764    0.88374    0.46402    0 
C6       C      0.53252    0.01724    0.53728    0 
C6       C      0.03251    0.51723    0.53728    0 
C3       C      0.69185    0.46922    0.38578    0 
C3       C      0.19185    0.96922    0.38578    0 
H1       H      0.69536    0.48946    0.38019    0 
H1       H      0.19535    0.98945    0.38019    0 
C4       C      0.73383    0.45524    0.39863    0 
C4       C      0.23383    0.95524    0.39863    0 
C4       C      0.81743    0.42703    0.42526    0 
C4       C      0.31742    0.92702    0.42526    0 
C3       C      0.85832    0.41221    0.43778    0 
C3       C      0.35832    0.91221    0.43778    0 
H1       H      0.88958    0.42317    0.44136    0 
H1       H      0.38958    0.92316    0.44136    0 
C6       C      0.78943    0.4705     0.39948    0 
C6       C      0.28942    0.9705     0.39948    0 
C6       C      0.80889    0.46141    0.42382    0 
C6       C      0.30888    0.9614     0.42382    0 
Zn1      Zn     0.50001    0.16666    0.62837    0 
Zn1      Zn     0          0.66665    0.62837    0 
Zn1      Zn     0.56439    0.18813    0.67384    0 
Zn1      Zn     0.06438    0.68812    0.67384    0 
Zn1      Zn     0.56237    0.47922    0.81741    0 
Zn1      Zn     0.06236    0.97922    0.81741    0 
Zn1      Zn     0          0          0.86537    0 
Zn1      Zn     0.50001    0.5        0.86537    0 
O1       O      0.50001    0.16666    0.66226    0 
O1       O      0          0.66665    0.66226    0 
O1       O      0          0          0.82952    0 
O1       O      0.50001    0.5        0.82952    0 
O2       O      0.93773    0.35411    0.94793    0 
O2       O      0.43772    0.8541     0.94793    0 
O2       O      0.89398    0.36867    0.98047    0 
O2       O      0.39397    0.86867    0.98047    0 
O2       O      0.61289    0.46238    0.83979    0 
O2       O      0.11289    0.96238    0.83979    0 
O2       O      0.56914    0.47694    0.87095    0 
O2       O      0.06913    0.97694    0.87095    0 
O2       O      0.5469     0.22357    0.69277    0 
O2       O      0.04689    0.72357    0.69277    0 
O2       O      0.5444     0.44361    0.79737    0 
O2       O      0.0444     0.94361    0.79737    0 
C3       C      0.85796    0.38067    0.92001    0 
C3       C      0.35795    0.88067    0.92001    0 
H1       H      0.88693    0.37102    0.9126     0 
H1       H      0.38692    0.87101    0.9126     0 
C2       C      0.85635    0.38121    0.94296    0 
C2       C      0.35634    0.8812     0.94296    0 
C3       C      0.81409    0.3953     0.95373    0 
C3       C      0.31408    0.8953     0.95373    0 
H1       H      0.81284    0.39572    0.9701     0 
H1       H      0.31283    0.89572    0.9701     0 
C6       C      0.69181    0.43608    0.93959    0 
C6       C      0.19181    0.93607    0.93959    0 
C3       C      0.64879    0.45041    0.89991    0 
C3       C      0.14878    0.9504     0.89991    0 
H1       H      0.62006    0.45999    0.90756    0 
H1       H      0.12006    0.95998    0.90756    0 
C2       C      0.65124    0.44959    0.8758     0 
C2       C      0.15124    0.94959    0.8758     0 
C3       C      0.69149    0.43617    0.86627    0 
C3       C      0.19149    0.93617    0.86627    0 
H1       H      0.69395    0.43536    0.84993    0 
H1       H      0.19394    0.93535    0.84993    0 
C6       C      0.79213    0.42431    0.8706     0 
C6       C      0.29212    0.9243     0.8706     0 
C6       C      0.81916    0.39363    0.87986    0 
C6       C      0.31916    0.89362    0.87986    0 
C4       C      0.81779    0.39407    0.90615    0 
C4       C      0.31779    0.89406    0.90615    0 
C5       C      0.77501    0.40833    0.91685    0 
C5       C      0.275      0.90832    0.91685    0 
C4       C      0.7717     0.40942    0.94086    0 
C4       C      0.2717     0.90942    0.94086    0 
C4       C      0.69105    0.43631    0.91292    0 
C4       C      0.19104    0.93631    0.91292    0 
C5       C      0.73206    0.42266    0.90226    0 
C5       C      0.23206    0.92265    0.90226    0 
C4       C      0.73226    0.42259    0.88008    0 
C4       C      0.23226    0.92258    0.88008    0 
C1       C      0.89889    0.36704    0.95829    0 
C1       C      0.39888    0.86704    0.95829    0 
C1       C      0.60584    0.46471    0.86123    0 
C1       C      0.10583    0.96471    0.86123    0 
C2       C      0.50001    0.26267    0.71479    0 
C2       C      0          0.76267    0.71479    0 
C3       C      0.54972    0.27798    0.71911    0 
C3       C      0.04971    0.77797    0.71911    0 
H1       H      0.58183    0.26961    0.71352    0 
H1       H      0.08182    0.7696     0.71352    0 
C4       C      0.5498     0.30596    0.73197    0 
C4       C      0.0498     0.80596    0.73197    0 
C5       C      0.50001    0.31808    0.73929    0 
C5       C      0          0.81807    0.73929    0 
C5       C      0.50001    0.34729    0.75337    0 
C5       C      0          0.84729    0.75337    0 
C4       C      0.54928    0.36185    0.75859    0 
C4       C      0.04927    0.86185    0.75859    0 
C3       C      0.54746    0.38972    0.7711     0 
C3       C      0.04746    0.88972    0.7711     0 
H1       H      0.57953    0.39986    0.7747     0 
H1       H      0.07953    0.89986    0.7747     0 
C2       C      0.50001    0.40242    0.77821    0 
C2       C      0          0.90242    0.77821    0 
C6       C      0.60044    0.3261     0.7328     0 
C6       C      0.10044    0.8261     0.7328     0 
C6       C      0.59657    0.34041    0.75714    0 
C6       C      0.09657    0.8404     0.75714    0 
C1       C      0.50001    0.23397    0.69905    0 
C1       C      0          0.73397    0.69905    0 
C1       C      0.50001    0.43217    0.79284    0 
C1       C      0          0.93216    0.79284    0 
Zn1      Zn     0.43563    0.18813    0.67384    0 
Zn1      Zn     0.93563    0.68812    0.67384    0 
Zn1      Zn     0          0.04157    0.81741    0 
Zn1      Zn     0.50001    0.54156    0.81741    0 
O2       O      0          0.2918     0.94793    0 
O2       O      0.50001    0.79179    0.94793    0 
O2       O      0          0.26265    0.98047    0 
O2       O      0.50001    0.76265    0.98047    0 
O2       O      0          0.07525    0.83979    0 
O2       O      0.50001    0.57524    0.83979    0 
O2       O      0          0.04608    0.87095    0 
O2       O      0.50001    0.54607    0.87095    0 
O2       O      0.39119    0.16166    0.69277    0 
O2       O      0.8912     0.66165    0.69277    0 
O2       O      0.06236    0.0504     0.79737    0 
O2       O      0.56237    0.5504     0.79737    0 
C3       C      0          0.23865    0.92001    0 
C3       C      0.50001    0.73864    0.92001    0 
H1       H      0          0.25795    0.9126     0 
H1       H      0.50001    0.75795    0.9126     0 
C2       C      0          0.23758    0.94296    0 
C2       C      0.50001    0.73757    0.94296    0 
C3       C      0          0.20939    0.95373    0 
C3       C      0.50001    0.70938    0.95373    0 
H1       H      0          0.20857    0.9701     0 
H1       H      0.50001    0.70857    0.9701     0 
C6       C      0.96166    0.15224    0.95001    0 
C6       C      0.46165    0.65223    0.95001    0 
C6       C      0          0.12786    0.93959    0 
C6       C      0.50001    0.62786    0.93959    0 
C3       C      0          0.09918    0.89991    0 
C3       C      0.50001    0.59918    0.89991    0 
H1       H      0          0.08004    0.90756    0 
H1       H      0.50001    0.58003    0.90756    0 
C2       C      0          0.10083    0.8758     0 
C2       C      0.50001    0.60083    0.8758     0 
C3       C      0          0.12765    0.86627    0 
C3       C      0.50001    0.62765    0.86627    0 
H1       H      0          0.1293     0.84993    0 
H1       H      0.50001    0.6293     0.84993    0 
C6       C      0          0.21276    0.87986    0 
C6       C      0.50001    0.71275    0.87986    0 
C4       C      0          0.21185    0.90615    0 
C4       C      0.50001    0.71185    0.90615    0 
C5       C      0          0.18333    0.91685    0 
C5       C      0.50001    0.68333    0.91685    0 
C4       C      0          0.18115    0.94086    0 
C4       C      0.50001    0.68114    0.94086    0 
C4       C      0          0.12735    0.91292    0 
C4       C      0.50001    0.62734    0.91292    0 
C5       C      0          0.1547     0.90226    0 
C5       C      0.50001    0.6547     0.90226    0 
C4       C      0          0.15484    0.88008    0 
C4       C      0.50001    0.65484    0.88008    0 
C1       C      0          0.26591    0.95829    0 
C1       C      0.50001    0.7659     0.95829    0 
C1       C      0          0.07057    0.86123    0 
C1       C      0.50001    0.57057    0.86123    0 
C2       C      0.35598    0.11867    0.71479    0 
C2       C      0.85598    0.61867    0.71479    0 
C3       C      0.30816    0.13588    0.71911    0 
C3       C      0.80816    0.63588    0.71911    0 
H1       H      0.30465    0.15612    0.71352    0 
H1       H      0.80466    0.65612    0.71352    0 
C4       C      0.26618    0.12191    0.73197    0 
C4       C      0.76618    0.6219     0.73197    0 
C5       C      0.27287    0.09095    0.73929    0 
C5       C      0.77287    0.59094    0.73929    0 
C5       C      0.22907    0.07636    0.75337    0 
C5       C      0.72908    0.57636    0.75337    0 
C4       C      0.18258    0.09369    0.75859    0 
C4       C      0.68259    0.59369    0.75859    0 
C3       C      0.14169    0.07887    0.7711     0 
C3       C      0.6417     0.57887    0.7711     0 
H1       H      0.11043    0.08983    0.7747     0 
H1       H      0.61043    0.58983    0.7747     0 
C2       C      0.14636    0.04878    0.77821    0 
C2       C      0.64637    0.54877    0.77821    0 
C6       C      0.21062    0.13716    0.7328     0 
C6       C      0.71063    0.63716    0.7328     0 
C6       C      0.19112    0.12807    0.75714    0 
C6       C      0.69113    0.62806    0.75714    0 
C1       C      0.39905    0.13302    0.69905    0 
C1       C      0.89905    0.63302    0.69905    0 
C1       C      0.10173    0.03391    0.79284    0 
C1       C      0.60173    0.53391    0.79284    0 
Zn1      Zn     0.50001    0.12374    0.67384    0 
Zn1      Zn     0          0.62374    0.67384    0 
Zn1      Zn     0.43768    0.47922    0.81741    0 
Zn1      Zn     0.93769    0.97922    0.81741    0 
O2       O      0.06232    0.35411    0.94793    0 
O2       O      0.56233    0.8541     0.94793    0 
O2       O      0.10604    0.36867    0.98047    0 
O2       O      0.60604    0.86867    0.98047    0 
O2       O      0.38712    0.46238    0.83979    0 
O2       O      0.88713    0.96238    0.83979    0 
O2       O      0.43087    0.47694    0.87095    0 
O2       O      0.93088    0.97694    0.87095    0 
O2       O      0.56189    0.11476    0.69277    0 
O2       O      0.06188    0.61476    0.69277    0 
O2       O      0.89321    0.006      0.79737    0 
O2       O      0.3932     0.506      0.79737    0 
C3       C      0.14201    0.38067    0.92001    0 
C3       C      0.64202    0.88067    0.92001    0 
H1       H      0.11309    0.37102    0.9126     0 
H1       H      0.61309    0.87101    0.9126     0 
C2       C      0.14366    0.38121    0.94296    0 
C2       C      0.64367    0.8812     0.94296    0 
C3       C      0.18593    0.3953     0.95373    0 
C3       C      0.68593    0.8953     0.95373    0 
H1       H      0.18713    0.39572    0.9701     0 
H1       H      0.68714    0.89572    0.9701     0 
C6       C      0.3082     0.43608    0.93959    0 
C6       C      0.8082     0.93607    0.93959    0 
C3       C      0.35122    0.45041    0.89991    0 
C3       C      0.85123    0.9504     0.89991    0 
H1       H      0.37995    0.45999    0.90756    0 
H1       H      0.87996    0.95998    0.90756    0 
C2       C      0.34877    0.44959    0.8758     0 
C2       C      0.84877    0.94959    0.8758     0 
C3       C      0.30852    0.43617    0.86627    0 
C3       C      0.80853    0.93617    0.86627    0 
H1       H      0.30606    0.43536    0.84993    0 
H1       H      0.80607    0.93535    0.84993    0 
C6       C      0.24039    0.39179    0.8706     0 
C6       C      0.7404     0.89179    0.8706     0 
C6       C      0.18085    0.39363    0.87986    0 
C6       C      0.68086    0.89362    0.87986    0 
C4       C      0.18222    0.39407    0.90615    0 
C4       C      0.68223    0.89406    0.90615    0 
C5       C      0.225      0.40833    0.91685    0 
C5       C      0.72501    0.90832    0.91685    0 
C4       C      0.22827    0.40942    0.94086    0 
C4       C      0.72827    0.90942    0.94086    0 
C4       C      0.30896    0.43631    0.91292    0 
C4       C      0.80897    0.93631    0.91292    0 
C5       C      0.26795    0.42266    0.90226    0 
C5       C      0.76796    0.92265    0.90226    0 
C4       C      0.26775    0.42259    0.88008    0 
C4       C      0.76776    0.92258    0.88008    0 
C1       C      0.10112    0.36704    0.95829    0 
C1       C      0.60113    0.86704    0.95829    0 
C1       C      0.39417    0.46471    0.86123    0 
C1       C      0.89418    0.96471    0.86123    0 
C2       C      0.64399    0.11867    0.71479    0 
C2       C      0.14399    0.61867    0.71479    0 
C3       C      0.6421     0.08615    0.71911    0 
C3       C      0.14209    0.58615    0.71911    0 
H1       H      0.6135     0.07427    0.71352    0 
H1       H      0.11349    0.57426    0.71352    0 
C4       C      0.68404    0.07213    0.73197    0 
C4       C      0.18403    0.57212    0.73197    0 
C5       C      0.72715    0.09095    0.73929    0 
C5       C      0.22714    0.59094    0.73929    0 
C5       C      0.77094    0.07636    0.75337    0 
C5       C      0.27093    0.57636    0.75337    0 
C4       C      0.76816    0.04445    0.75859    0 
C4       C      0.26815    0.54445    0.75859    0 
C3       C      0.81082    0.0314     0.7711     0 
C3       C      0.31082    0.5314     0.7711     0 
H1       H      0.81002    0.0103     0.7747     0 
H1       H      0.31001    0.5103     0.7747     0 
C2       C      0.85365    0.04878    0.77821    0 
C2       C      0.35364    0.54877    0.77821    0 
C6       C      0.68895    0.0367     0.7328     0 
C6       C      0.18895    0.5367     0.7328     0 
C6       C      0.71232    0.03152    0.75714    0 
C6       C      0.21231    0.53151    0.75714    0 
C1       C      0.60093    0.13302    0.69905    0 
C1       C      0.10092    0.63302    0.69905    0 
C1       C      0.89829    0.03391    0.79284    0 
C1       C      0.39828    0.53391    0.79284    0 
O2       O      0.43808    0.11476    0.69277    0 
O2       O      0.93809    0.61476    0.69277    0 
O2       O      0.1068     0.006      0.79737    0 
O2       O      0.60681    0.506      0.79737    0 
C6       C      0.70918    0.4047     0.95001    0 
C6       C      0.20917    0.90469    0.95001    0 
C3       C      0.35791    0.08615    0.71911    0 
C3       C      0.85792    0.58615    0.71911    0 
H1       H      0.38652    0.07427    0.71352    0 
H1       H      0.88652    0.57426    0.71352    0 
C4       C      0.31597    0.07213    0.73197    0 
C4       C      0.81598    0.57212    0.73197    0 
C4       C      0.23185    0.04445    0.75859    0 
C4       C      0.73186    0.54445    0.75859    0 
C3       C      0.18915    0.0314     0.7711     0 
C3       C      0.68916    0.5314     0.7711     0 
H1       H      0.18995    0.0103     0.7747     0 
H1       H      0.68996    0.5103     0.7747     0 
C6       C      0.31106    0.0367     0.7328     0 
C6       C      0.81106    0.5367     0.7328     0 
C6       C      0.28765    0.03152    0.75714    0 
C6       C      0.78766    0.53151    0.75714    0 
O2       O      0.45311    0.22357    0.69277    0 
O2       O      0.95312    0.72357    0.69277    0 
O2       O      0.45561    0.44361    0.79737    0 
O2       O      0.95562    0.94361    0.79737    0 
C6       C      0.25248    0.44306    0.95001    0 
C6       C      0.75249    0.94305    0.95001    0 
C3       C      0.45025    0.27798    0.71911    0 
C3       C      0.95026    0.77797    0.71911    0 
H1       H      0.41814    0.26961    0.71352    0 
H1       H      0.91815    0.7696     0.71352    0 
C4       C      0.45021    0.30596    0.73197    0 
C4       C      0.95022    0.80596    0.73197    0 
C4       C      0.45073    0.36185    0.75859    0 
C4       C      0.95074    0.86185    0.75859    0 
C3       C      0.45251    0.38972    0.7711     0 
C3       C      0.95251    0.88972    0.7711     0 
H1       H      0.42048    0.39986    0.7747     0 
H1       H      0.92048    0.89986    0.7747     0 
C6       C      0.39957    0.3261     0.7328     0 
C6       C      0.89958    0.8261     0.7328     0 
C6       C      0.40344    0.34041    0.75714    0 
C6       C      0.90344    0.8404     0.75714    0 
O2       O      0.60878    0.16166    0.69277    0 
O2       O      0.10878    0.66165    0.69277    0 
O2       O      0.93761    0.0504     0.79737    0 
O2       O      0.4376     0.5504     0.79737    0 
C6       C      0.03251    0.18392    0.8706     0 
C6       C      0.53252    0.68391    0.8706     0 
C3       C      0.69181    0.13588    0.71911    0 
C3       C      0.19181    0.63588    0.71911    0 
H1       H      0.69532    0.15612    0.71352    0 
H1       H      0.19531    0.65612    0.71352    0 
C4       C      0.73383    0.12191    0.73197    0 
C4       C      0.23383    0.6219     0.73197    0 
C4       C      0.81743    0.09369    0.75859    0 
C4       C      0.31742    0.59369    0.75859    0 
C3       C      0.85828    0.07887    0.7711     0 
C3       C      0.35828    0.57887    0.7711     0 
H1       H      0.88954    0.08983    0.7747     0 
H1       H      0.38954    0.58983    0.7747     0 
C6       C      0.78939    0.13716    0.7328     0 
C6       C      0.28938    0.63716    0.7328     0 
C6       C      0.80889    0.12807    0.75714    0 
C6       C      0.30888    0.62806    0.75714    0 
H2       H      0.65435    0.02763    0.73086    0 
H2       H      0.15434    0.52763    0.73086    0 
H2       H      0.71305    0.02952    0.72101    0 
H2       H      0.21304    0.52951    0.72101    0 
H2       H      0.81123    0.12902    0.72052    0 
H2       H      0.31122    0.62902    0.72052    0 
H2       H      0.78641    0.15912    0.7315     0 
H2       H      0.2864     0.65912    0.7315     0 
H2       H      0.7827     0.13419    0.76844    0 
H2       H      0.2827     0.63418    0.76844    0 
H2       H      0.84188    0.13842    0.76039    0 
H2       H      0.34188    0.63842    0.76039    0 
H2       H      0.71321    0.00982    0.7603     0 
H2       H      0.2132     0.50981    0.7603     0 
H2       H      0.6902     0.04152    0.76851    0 
H2       H      0.1902     0.54151    0.76851    0 
H2       H      0.03372    0.1844     0.85387    0 
H2       H      0.53373    0.6844     0.85387    0 
H2       H      0.06796    0.18399    0.87691    0 
H2       H      0.56797    0.68398    0.87691    0 
H2       H      0.96395    0.21194    0.87427    0 
H2       H      0.46395    0.71194    0.87427    0 
H2       H      0.01672    0.23139    0.87459    0 
H2       H      0.51673    0.73139    0.87459    0 
H2       H      0.03578    0.13212    0.9446     0 
H2       H      0.53578    0.63211    0.9446     0 
H2       H      0.98982    0.1079     0.94521    0 
H2       H      0.48981    0.6079     0.94521    0 
H2       H      0.92713    0.15014    0.94296    0 
H2       H      0.42713    0.65014    0.94296    0 
H2       H      0.96001    0.15112    0.96672    0 
H2       H      0.46       0.65112    0.96672    0 
H2       H      0.03578    0.46545    0.61125    0 
H2       H      0.53578    0.96545    0.61125    0 
H2       H      0.98982    0.44122    0.61189    0 
H2       H      0.48981    0.94121    0.61189    0 
H2       H      0.8109     0.4418     0.87668    0 
H2       H      0.3109     0.94179    0.87668    0 
H2       H      0.79237    0.42468    0.85386    0 
H2       H      0.29237    0.92468    0.85386    0 
H2       H      0.79982    0.37614    0.87409    0 
H2       H      0.29982    0.87613    0.87409    0 
H2       H      0.85546    0.39265    0.87459    0 
H2       H      0.35546    0.89265    0.87459    0 
H2       H      0.71635    0.45138    0.94512    0 
H2       H      0.21634    0.95138    0.94512    0 
H2       H      0.65676    0.44096    0.94521    0 
H2       H      0.15676    0.94096    0.94521    0 
H2       H      0.70309    0.40477    0.96654    0 
H2       H      0.20309    0.90476    0.96654    0 
H2       H      0.69193    0.38767    0.94245    0 
H2       H      0.19193    0.88767    0.94245    0 
H2       H      0.16429    0.41203    0.87409    0 
H2       H      0.6643     0.91202    0.87409    0 
H2       H      0.16127    0.37595    0.87459    0 
H2       H      0.66128    0.87595    0.87459    0 
H2       H      0.25723    0.37367    0.87668    0 
H2       H      0.75724    0.87367    0.87668    0 
H2       H      0.24088    0.39149    0.85386    0 
H2       H      0.74088    0.89148    0.85386    0 
H2       H      0.25558    0.44608    0.96654    0 
H2       H      0.75559    0.94607    0.96654    0 
H2       H      0.23556    0.4602     0.94245    0 
H2       H      0.73557    0.96019    0.94245    0 
H2       H      0.31891    0.41614    0.94512    0 
H2       H      0.81892    0.91614    0.94512    0 
H2       H      0.33306    0.45115    0.94521    0 
H2       H      0.83306    0.95114    0.94521    0 
H2       H      0.40086    0.34111    0.72052    0 
H2       H      0.90086    0.8411     0.72052    0 
H2       H      0.36811    0.31364    0.7315     0 
H2       H      0.86811    0.81363    0.7315     0 
H2       H      0.40739    0.32424    0.76844    0 
H2       H      0.90739    0.82424    0.76844    0 
H2       H      0.37141    0.35174    0.76039    0 
H2       H      0.87141    0.85173    0.76039    0 
H2       H      0.63138    0.31336    0.73086    0 
H2       H      0.13138    0.81335    0.73086    0 
H2       H      0.59919    0.34178    0.72101    0 
H2       H      0.09919    0.84178    0.72101    0 
H2       H      0.62868    0.35169    0.7603     0 
H2       H      0.12868    0.85169    0.7603     0 
H2       H      0.59263    0.32434    0.76851    0 
H2       H      0.09262    0.82433    0.76851    0 
H2       H      0.25973    0.22427    0.52053    0 
H2       H      0.75974    0.72427    0.52053    0 
H2       H      0.24201    0.20736    0.54359    0 
H2       H      0.74201    0.70736    0.54359    0 
H2       H      0.33596    0.24537    0.54092    0 
H2       H      0.83596    0.74536    0.54092    0 
H2       H      0.33874    0.20929    0.54126    0 
H2       H      0.83874    0.70929    0.54126    0 
H2       H      0.21634    0.2847     0.61178    0 
H2       H      0.71635    0.7847     0.61178    0 
H2       H      0.15676    0.2743     0.61189    0 
H2       H      0.65676    0.7743     0.61189    0 
H2       H      0.20309    0.23809    0.6332     0 
H2       H      0.70309    0.73808    0.6332     0 
H2       H      0.19193    0.22102    0.6091     0 
H2       H      0.69193    0.72101    0.6091     0 
H2       H      0.46395    0.04529    0.54092    0 
H2       H      0.96395    0.54528    0.54092    0 
H2       H      0.51668    0.06473    0.54126    0 
H2       H      0.01668    0.56473    0.54126    0 
H2       H      0.7827     0.46752    0.43512    0 
H2       H      0.2827     0.96752    0.43512    0 
H2       H      0.84188    0.47176    0.42704    0 
H2       H      0.34188    0.97175    0.42704    0 
H2       H      0.81123    0.46236    0.38717    0 
H2       H      0.31122    0.96236    0.38717    0 
H2       H      0.78641    0.49246    0.39817    0 
H2       H      0.2864     0.99245    0.39817    0 
H2       H      0.65435    0.36097    0.39752    0 
H2       H      0.15434    0.86097    0.39752    0 
H2       H      0.71309    0.36283    0.38768    0 
H2       H      0.21308    0.86283    0.38768    0 
H2       H      0.71325    0.34315    0.42696    0 
H2       H      0.21324    0.84315    0.42696    0 
H2       H      0.6902     0.37486    0.43519    0 
H2       H      0.1902     0.87485    0.43519    0 
H2       H      0.46395    0.37863    0.20758    0 
H2       H      0.96395    0.87862    0.20758    0 
H2       H      0.51668    0.39805    0.20792    0 
H2       H      0.01668    0.89804    0.20792    0 
H2       H      0.53373    0.35106    0.18721    0 
H2       H      0.03372    0.85106    0.18721    0 
H2       H      0.56793    0.35064    0.21024    0 
H2       H      0.06792    0.85064    0.21024    0 
H2       H      0.53578    0.2988     0.27793    0 
H2       H      0.03578    0.79879    0.27793    0 
H2       H      0.48981    0.27456    0.27854    0 
H2       H      0.98982    0.77456    0.27854    0 
H2       H      0.42709    0.31682    0.27629    0 
H2       H      0.92709    0.81682    0.27629    0 
H2       H      0.46       0.31778    0.30005    0 
H2       H      0.96001    0.81777    0.30005    0 
H2       H      0.90086    0.17443    0.38717    0 
H2       H      0.40086    0.67442    0.38717    0 
H2       H      0.86811    0.14698    0.39817    0 
H2       H      0.36811    0.64697    0.39817    0 
H2       H      0.13138    0.14668    0.39752    0 
H2       H      0.63138    0.64667    0.39752    0 
H2       H      0.09923    0.1751     0.38768    0 
H2       H      0.59923    0.6751     0.38768    0 
H2       H      0.12868    0.18503    0.42696    0 
H2       H      0.62868    0.68503    0.42696    0 
H2       H      0.09262    0.15768    0.43519    0 
H2       H      0.59263    0.65767    0.43519    0 
H2       H      0.90739    0.15759    0.43512    0 
H2       H      0.40739    0.65758    0.43512    0 
H2       H      0.87141    0.18506    0.42704    0 
H2       H      0.37141    0.68505    0.42704    0 
H2       H      0.75974    0.05761    0.18721    0 
H2       H      0.25973    0.55761    0.18721    0 
H2       H      0.74201    0.0407     0.21024    0 
H2       H      0.24201    0.5407     0.21024    0 
H2       H      0.83596    0.07871    0.20758    0 
H2       H      0.33596    0.57871    0.20758    0 
H2       H      0.83874    0.04261    0.20792    0 
H2       H      0.33874    0.54261    0.20792    0 
H2       H      0.68029    0.08271    0.27793    0 
H2       H      0.18029    0.58271    0.27793    0 
H2       H      0.66692    0.11781    0.27854    0 
H2       H      0.16691    0.61781    0.27854    0 
H2       H      0.76167    0.12805    0.27629    0 
H2       H      0.26167    0.62804    0.27629    0 
H2       H      0.74669    0.11111    0.30005    0 
H2       H      0.24668    0.61111    0.30005    0 
H2       H      0.15434    0.19431    0.06419    0 
H2       H      0.65435    0.69431    0.06419    0 
H2       H      0.21304    0.19617    0.05436    0 
H2       H      0.71305    0.69617    0.05436    0 
H2       H      0.2132     0.1765     0.09363    0 
H2       H      0.71321    0.67649    0.09363    0 
H2       H      0.1902     0.2082     0.10184    0 
H2       H      0.6902     0.70819    0.10184    0 
H2       H      0.2827     0.30084    0.10177    0 
H2       H      0.7827     0.80084    0.10177    0 
H2       H      0.34188    0.3051     0.09372    0 
H2       H      0.84188    0.8051     0.09372    0 
H2       H      0.31122    0.29568    0.05385    0 
H2       H      0.81123    0.79568    0.05385    0 
H2       H      0.2864     0.3258     0.06483    0 
H2       H      0.78641    0.8258     0.06483    0 
H2       H      0.28793    0.02989    0.72052    0 
H2       H      0.78794    0.52988    0.72052    0 
H2       H      0.3455     0.02724    0.7315     0 
H2       H      0.84551    0.52723    0.7315     0 
H2       H      0.30993    0.04157    0.76844    0 
H2       H      0.80994    0.54156    0.76844    0 
H2       H      0.28668    0.00984    0.76039    0 
H2       H      0.78669    0.50983    0.76039    0 
H2       H      0.21429    0.159      0.73086    0 
H2       H      0.71429    0.659      0.73086    0 
H2       H      0.18774    0.12872    0.72101    0 
H2       H      0.68774    0.62872    0.72101    0 
H2       H      0.15813    0.13849    0.7603     0 
H2       H      0.65813    0.63848    0.7603     0 
H2       H      0.21719    0.13414    0.76851    0 
H2       H      0.7172     0.63414    0.76851    0 
H2       H      0.78395    0.28517    0.61125    0 
H2       H      0.28395    0.78516    0.61125    0 
H2       H      0.84325    0.2743     0.61189    0 
H2       H      0.34325    0.7743     0.61189    0 
H2       H      0.21429    0.49234    0.39752    0 
H2       H      0.71429    0.99234    0.39752    0 
H2       H      0.18774    0.46206    0.38768    0 
H2       H      0.68774    0.96205    0.38768    0 
H2       H      0.15813    0.4718     0.42696    0 
H2       H      0.65813    0.9718     0.42696    0 
H2       H      0.21719    0.46748    0.43519    0 
H2       H      0.7172     0.96747    0.43519    0 
H2       H      0.28793    0.36323    0.38717    0 
H2       H      0.78794    0.86322    0.38717    0 
H2       H      0.3455     0.36058    0.39817    0 
H2       H      0.84551    0.86057    0.39817    0 
H2       H      0.30993    0.3749     0.43512    0 
H2       H      0.80994    0.8749     0.43512    0 
H2       H      0.28668    0.34318    0.42704    0 
H2       H      0.78669    0.84317    0.42704    0 
H2       H      0.25558    0.11274    0.29987    0 
H2       H      0.75559    0.61274    0.29987    0 
H2       H      0.23556    0.12686    0.27578    0 
H2       H      0.73557    0.62685    0.27578    0 
H2       H      0.31891    0.08281    0.27846    0 
H2       H      0.81892    0.5828     0.27846    0 
H2       H      0.33306    0.11781    0.27854    0 
H2       H      0.83306    0.61781    0.27854    0 
H2       H      0.16429    0.07871    0.20742    0 
H2       H      0.6643     0.57871    0.20742    0 
H2       H      0.16127    0.04261    0.20792    0 
H2       H      0.66128    0.54261    0.20792    0 
H2       H      0.25723    0.04033    0.21003    0 
H2       H      0.75724    0.54033    0.21003    0 
H2       H      0.24088    0.05815    0.18719    0 
H2       H      0.74088    0.55815    0.18719    0 
H2       H      0.70007    0.20934    0.54092    0 
H2       H      0.20007    0.70933    0.54092    0 
H2       H      0.64456    0.22599    0.54126    0 
H2       H      0.14455    0.72599    0.54126    0 
H2       H      0.68307    0.27437    0.53856    0 
H2       H      0.18307    0.77437    0.53856    0 
H2       H      0.71792    0.25502    0.52124    0 
H2       H      0.21791    0.75502    0.52124    0 
H2       H      0.79148    0.23921    0.63339    0 
H2       H      0.29148    0.7392     0.63339    0 
H2       H      0.81489    0.22225    0.61153    0 
H2       H      0.31489    0.72224    0.61153    0 
H2       H      0.69318    0.30315    0.10593    0 
H2       H      0.19318    0.80314    0.10593    0 
H2       H      0.66184    0.30403    0.0823     0 
H2       H      0.16183    0.80403    0.0823     0 
H2       H      0.80131    0.19503    0.10593    0 
H2       H      0.30131    0.69503    0.10593    0 
H2       H      0.78693    0.17892    0.0823     0 
H2       H      0.28693    0.67891    0.0823     0 
H2       H      0.09045    0.51411    0.06627    0 
H2       H      0.59045    0.01411    0.06627    0 
H2       H      0.12203    0.48867    0.05268    0 
H2       H      0.62204    0.98866    0.05268    0 
H2       H      0.90634    0.512      0.05843    0 
H2       H      0.40634    0.01199    0.05843    0 
H2       H      0.87085    0.48229    0.05843    0 
H2       H      0.37084    0.98229    0.05843    0 
H2       H      0.712      0.32343    0.05843    0 
H2       H      0.21199    0.82342    0.05843    0 
H2       H      0.68517    0.29084    0.05843    0 
H2       H      0.18516    0.79084    0.05843    0 
H2       H      0.77883    0.19715    0.05843    0 
H2       H      0.27883    0.69715    0.05843    0 
H2       H      0.84116    0.19427    0.05843    0 
H2       H      0.34115    0.69426    0.05843    0 
H2       H      0.37117    0.01891    0.09005    0 
H2       H      0.87117    0.51891    0.09005    0 
H2       H      0.40307    0.99384    0.10389    0 
H2       H      0.90308    0.49383    0.10389    0 
H2       H      0.60814    0.00184    0.10593    0 
H2       H      0.10813    0.50183    0.10593    0 
H2       H      0.6251     0.01707    0.0823     0 
H2       H      0.12509    0.51707    0.0823     0 
H2       H      0.96307    0.48467    0.63339    0 
H2       H      0.46306    0.98466    0.63339    0 
H2       H      0.92592    0.48143    0.61153    0 
H2       H      0.42592    0.98143    0.61153    0 
H2       H      0.56821    0.02138    0.54241    0 
H2       H      0.06821    0.52137    0.54241    0 
H2       H      0.52639    0.01814    0.52055    0 
H2       H      0.02639    0.51814    0.52055    0 
C1       C      0.10112    0.0337     0.29162    0 
C1       C      0.60113    0.5337     0.29162    0 
C5       C      0.27093    0.24302    0.0867     0 
C5       C      0.77094    0.74302    0.0867     0 
H1       H      0.50001    0.24672    0.24091    0 
H1       H      0          0.74671    0.24091    0 
C6       C      0.18085    0.06029    0.21319    0 
C6       C      0.68086    0.56029    0.21319    0 
C1       C      0.89905    0.29968    0.03236    0 
C1       C      0.39905    0.79968    0.03236    0 
C6       C      0.24039    0.05848    0.20393    0 
C6       C      0.7404     0.55847    0.20393    0 
C6       C      0.69113    0.29475    0.09049    0 
C6       C      0.19112    0.79475    0.09049    0 
C4       C      0.26775    0.08925    0.21342    0 
C4       C      0.76776    0.58924    0.21342    0 
C3       C      0.50001    0.26584    0.23325    0 
C3       C      0          0.76583    0.23325    0 
C6       C      0.50001    0.29454    0.27292    0 
C6       C      0          0.79454    0.27292    0 
C6       C      0.46161    0.31889    0.28334    0 
C6       C      0.96162    0.81889    0.28334    0 
H1       H      0.50001    0.37523    0.30343    0 
H1       H      0          0.87522    0.30343    0 
C3       C      0.50001    0.37604    0.28706    0 
C3       C      0          0.87604    0.28706    0 
C5       C      0.26795    0.08932    0.23559    0 
C5       C      0.76796    0.58931    0.23559    0 
C2       C      0.50001    0.40423    0.27631    0 
C2       C      0          0.90423    0.27631    0 
H1       H      0.50001    0.42461    0.24594    0 
H1       H      0          0.92461    0.24594    0 
H1       H      0.30606    0.10202    0.18326    0 
H1       H      0.80607    0.60201    0.18326    0 
C6       C      0.71063    0.30382    0.06615    0 
C6       C      0.21062    0.80382    0.06615    0 
C3       C      0.50001    0.4053     0.25334    0 
C3       C      0          0.9053     0.25334    0 
O2       O      0.56237    0.21706    0.1307     0 
O2       O      0.06236    0.71706    0.1307     0 
C2       C      0.64637    0.21546    0.11154    0 
C2       C      0.14636    0.71545    0.11154    0 
O2       O      0.89124    0.32834    0.0261     0 
O2       O      0.39123    0.82833    0.0261     0 
O2       O      0.50001    0.21276    0.2043     0 
O2       O      0          0.71275    0.2043     0 
O2       O      0.50001    0.24193    0.17312    0 
O2       O      0          0.74192    0.17312    0 
H1       H      0.61043    0.25649    0.10803    0 
H1       H      0.11043    0.75648    0.10803    0 
C3       C      0.30852    0.10283    0.1996     0 
C3       C      0.80853    0.60283    0.1996     0 
C2       C      0.34877    0.11625    0.20913    0 
C2       C      0.84877    0.61625    0.20913    0 
C3       C      0.6417     0.24556    0.10443    0 
C3       C      0.14169    0.74555    0.10443    0 
C4       C      0.68259    0.26037    0.09192    0 
C4       C      0.18258    0.76037    0.09192    0 
H1       H      0.37995    0.12665    0.24091    0 
H1       H      0.87996    0.62665    0.24091    0 
C3       C      0.35127    0.11709    0.23325    0 
C3       C      0.85127    0.61709    0.23325    0 
O2       O      0.50001    0.42933    0.3138     0 
O2       O      0          0.92933    0.3138     0 
O2       O      0.50001    0.45848    0.28128    0 
O2       O      0          0.95847    0.28128    0 
Zn1      Zn     0.50001    0.20822    0.15074    0 
Zn1      Zn     0          0.70822    0.15074    0 
Zn1      Zn     0.93563    0.35481    0.00717    0 
Zn1      Zn     0.43563    0.8548     0.00717    0 
C1       C      0.50001    0.09883    0.12617    0 
C1       C      0          0.59883    0.12617    0 
C1       C      0          0.40063    0.03236    0 
C1       C      0.50001    0.90062    0.03236    0 
C6       C      0.59657    0.00707    0.09047    0 
C6       C      0.09657    0.50707    0.09047    0 
C6       C      0.10044    0.49278    0.06615    0 
C6       C      0.60044    0.99278    0.06615    0 
C2       C      0.50001    0.06911    0.11154    0 
C2       C      0          0.5691     0.11154    0 
H1       H      0.57953    0.06652    0.10803    0 
H1       H      0.07953    0.56652    0.10803    0 
C6       C      0.3082     0.10274    0.27292    0 
C6       C      0.8082     0.60273    0.27292    0 
C5       C      0.72908    0.24302    0.0867     0 
C5       C      0.22907    0.74302    0.0867     0 
H1       H      0.18717    0.06238    0.30343    0 
H1       H      0.68718    0.56238    0.30343    0 
C3       C      0.54746    0.05638    0.10443    0 
C3       C      0.04746    0.55638    0.10443    0 
C5       C      0.77287    0.25763    0.0726     0 
C5       C      0.27287    0.75762    0.0726     0 
C4       C      0.54924    0.02852    0.09192    0 
C4       C      0.04923    0.52851    0.09192    0 
C4       C      0.76618    0.28859    0.0653     0 
C4       C      0.26618    0.78858    0.0653     0 
C5       C      0.50001    0.01396    0.0867     0 
C5       C      0          0.51395    0.0867     0 
C5       C      0.22714    0.25763    0.0726     0 
C5       C      0.72715    0.75762    0.0726     0 
C3       C      0.18593    0.06199    0.28706    0 
C3       C      0.68593    0.56198    0.28706    0 
C5       C      0          0.48476    0.0726     0 
C5       C      0.50001    0.98476    0.0726     0 
C4       C      0.0498     0.47262    0.0653     0 
C4       C      0.5498     0.97261    0.0653     0 
C4       C      0.18403    0.23879    0.0653     0 
C4       C      0.68404    0.73878    0.0653     0 
H1       H      0.08182    0.43629    0.04687    0 
H1       H      0.58183    0.93628    0.04687    0 
C2       C      0.14362    0.04787    0.27631    0 
C2       C      0.64363    0.54786    0.27631    0 
H1       H      0.11349    0.24095    0.04687    0 
H1       H      0.6135     0.74094    0.04687    0 
C3       C      0.04971    0.44464    0.05244    0 
C3       C      0.54972    0.94463    0.05244    0 
H1       H      0.8047     0.32278    0.04687    0 
H1       H      0.30469    0.82277    0.04687    0 
C3       C      0.8082     0.30254    0.05244    0 
C3       C      0.3082     0.80254    0.05244    0 
C2       C      0          0.42933    0.0481     0 
C2       C      0.50001    0.92933    0.0481     0 
H2       H      0.48329    0.26861    0.12541    0 
H2       H      0.98329    0.7686     0.12541    0 
H2       H      0.5359     0.28817    0.1259     0 
H2       H      0.0359     0.78816    0.1259     0 
Zn1      Zn     0.50001    0.2096     0.99284    0 
Zn1      Zn     0          0.70959    0.99284    0 
Zn1      Zn     0.93769    0.35411    0.84927    0 
Zn1      Zn     0.43768    0.8541     0.84927    0 
Zn1      Zn     0          0.33334    0.8013     0 
Zn1      Zn     0.50001    0.83333    0.8013     0 
O1       O      0.50001    0.16666    0.00441    0 
O1       O      0          0.66665    0.00441    0 
O1       O      0          0.33334    0.83715    0 
O1       O      0.50001    0.83333    0.83715    0 
O2       O      0.56233    0.47922    0.71874    0 
O2       O      0.06232    0.97922    0.71874    0 
O2       O      0.60604    0.46466    0.6862     0 
O2       O      0.10604    0.96466    0.6862     0 
O2       O      0.88713    0.37095    0.82687    0 
O2       O      0.38712    0.87094    0.82687    0 
O2       O      0.93088    0.35637    0.79569    0 
O2       O      0.43087    0.85636    0.79569    0 
O2       O      0.56189    0.21855    0.97389    0 
O2       O      0.06188    0.71855    0.97389    0 
O2       O      0.89321    0.32734    0.8693     0 
O2       O      0.3932     0.82733    0.8693     0 
C3       C      0.64206    0.45266    0.74666    0 
C3       C      0.14205    0.95266    0.74666    0 
H1       H      0.61309    0.46231    0.75406    0 
H1       H      0.11309    0.96231    0.75406    0 
C2       C      0.64367    0.45213    0.72371    0 
C2       C      0.14366    0.95212    0.72371    0 
C3       C      0.68593    0.43803    0.71295    0 
C3       C      0.18593    0.93803    0.71295    0 
H1       H      0.68718    0.43761    0.69656    0 
H1       H      0.18717    0.93761    0.69656    0 
C6       C      0.79084    0.42863    0.71666    0 
C6       C      0.29083    0.92863    0.71666    0 
C6       C      0.8082     0.39726    0.72707    0 
C6       C      0.3082     0.89725    0.72707    0 
C3       C      0.85127    0.38293    0.76675    0 
C3       C      0.35127    0.88292    0.76675    0 
H1       H      0.87996    0.37335    0.75908    0 
H1       H      0.37995    0.87334    0.75908    0 
C2       C      0.84877    0.38374    0.79086    0 
C2       C      0.34877    0.88374    0.79086    0 
C3       C      0.80853    0.39716    0.80042    0 
C3       C      0.30852    0.89716    0.80042    0 
H1       H      0.80607    0.39798    0.81675    0 
H1       H      0.30606    0.89797    0.81675    0 
C6       C      0.68086    0.43971    0.78681    0 
C6       C      0.18085    0.9397     0.78681    0 
C4       C      0.68223    0.43926    0.76049    0 
C4       C      0.18222    0.93926    0.76049    0 
C5       C      0.72501    0.42501    0.74981    0 
C5       C      0.225      0.925      0.74981    0 
C4       C      0.72831    0.42391    0.7258     0 
C4       C      0.22831    0.92391    0.7258     0 
C4       C      0.80897    0.397      0.75374    0 
C4       C      0.30896    0.897      0.75374    0 
C5       C      0.76796    0.41068    0.76441    0 
C5       C      0.26795    0.91067    0.76441    0 
C2       C      0.85603    0.28533    0.0481     0 
C2       C      0.35602    0.78532    0.0481     0 
C3       C      0.14209    0.25281    0.05244    0 
C3       C      0.6421     0.75281    0.05244    0 
C1       C      0.89418    0.36862    0.80544    0 
C1       C      0.39417    0.86862    0.80544    0 
C2       C      0.64399    0.21467    0.95189    0 
C2       C      0.14399    0.71466    0.95189    0 
C3       C      0.6421     0.24718    0.94756    0 
C3       C      0.14209    0.74718    0.94756    0 
H1       H      0.6135     0.25905    0.95314    0 
H1       H      0.11349    0.75904    0.95314    0 
C4       C      0.68404    0.26121    0.93471    0 
C4       C      0.18403    0.7612     0.93471    0 
C5       C      0.72715    0.24239    0.92739    0 
C5       C      0.22714    0.74239    0.92739    0 
C4       C      0.30896    0.10299    0.24625    0 
C4       C      0.80897    0.60299    0.24625    0 
C4       C      0.76816    0.28889    0.90808    0 
C4       C      0.26815    0.78888    0.90808    0 
H1       H      0.11309    0.0377     0.24594    0 
H1       H      0.61309    0.5377     0.24594    0 
H1       H      0.81006    0.32303    0.89196    0 
H1       H      0.31005    0.82303    0.89196    0 
C2       C      0.85365    0.28454    0.88846    0 
C2       C      0.35364    0.78453    0.88846    0 
C6       C      0.68895    0.29661    0.93384    0 
C6       C      0.18895    0.79661    0.93384    0 
C6       C      0.71236    0.30182    0.90952    0 
C6       C      0.21235    0.80182    0.90952    0 
C1       C      0.60093    0.20031    0.96763    0 
C1       C      0.10092    0.70031    0.96763    0 
C1       C      0.89829    0.29943    0.87385    0 
C1       C      0.39828    0.79942    0.87385    0 
Zn1      Zn     0.56439    0.14521    0.99284    0 
Zn1      Zn     0.06438    0.64521    0.99284    0 
Zn1      Zn     0.06232    0.35411    0.84927    0 
Zn1      Zn     0.56233    0.8541     0.84927    0 
O2       O      0.43768    0.47922    0.71874    0 
O2       O      0.93769    0.97922    0.71874    0 
O2       O      0.39397    0.46466    0.6862     0 
O2       O      0.89398    0.96466    0.6862     0 
O2       O      0.11289    0.37095    0.82687    0 
O2       O      0.61289    0.87094    0.82687    0 
O2       O      0.06913    0.35637    0.79569    0 
O2       O      0.56914    0.85636    0.79569    0 
O2       O      0.5469     0.10976    0.97389    0 
O2       O      0.04689    0.60976    0.97389    0 
O2       O      0.0444     0.38972    0.8693     0 
O2       O      0.5444     0.88972    0.8693     0 
C3       C      0.35795    0.45266    0.74666    0 
C3       C      0.85796    0.95266    0.74666    0 
H1       H      0.38692    0.46231    0.75406    0 
H1       H      0.88693    0.96231    0.75406    0 
C2       C      0.35634    0.45213    0.72371    0 
C2       C      0.85635    0.95212    0.72371    0 
C3       C      0.31408    0.43803    0.71295    0 
C3       C      0.81409    0.93803    0.71295    0 
H1       H      0.31283    0.43761    0.69656    0 
H1       H      0.81284    0.93761    0.69656    0 
C6       C      0.24753    0.39026    0.71666    0 
C6       C      0.74753    0.89025    0.71666    0 
C6       C      0.19181    0.39726    0.72707    0 
C6       C      0.69181    0.89725    0.72707    0 
C3       C      0.14874    0.38293    0.76675    0 
C3       C      0.64875    0.88292    0.76675    0 
H1       H      0.12006    0.37335    0.75908    0 
H1       H      0.62006    0.87334    0.75908    0 
C2       C      0.15124    0.38374    0.79086    0 
C2       C      0.65124    0.88374    0.79086    0 
C3       C      0.19149    0.39716    0.80042    0 
C3       C      0.69149    0.89716    0.80042    0 
H1       H      0.19394    0.39798    0.81675    0 
H1       H      0.69395    0.89797    0.81675    0 
C6       C      0.31916    0.43971    0.78681    0 
C6       C      0.81916    0.9397     0.78681    0 
C4       C      0.31779    0.43926    0.76049    0 
C4       C      0.81779    0.93926    0.76049    0 
C5       C      0.275      0.42501    0.74981    0 
C5       C      0.77501    0.925      0.74981    0 
C4       C      0.2717     0.42391    0.7258     0 
C4       C      0.7717     0.92391    0.7258     0 
C4       C      0.19104    0.397      0.75374    0 
C4       C      0.69105    0.897      0.75374    0 
C5       C      0.23206    0.41068    0.76441    0 
C5       C      0.73206    0.91067    0.76441    0 
C4       C      0.23226    0.41075    0.78658    0 
C4       C      0.73226    0.91074    0.78658    0 
C1       C      0.39884    0.46629    0.70837    0 
C1       C      0.89885    0.96629    0.70837    0 
C1       C      0.10583    0.36862    0.80544    0 
C1       C      0.60584    0.86862    0.80544    0 
C2       C      0.50001    0.07066    0.95189    0 
C2       C      0          0.57066    0.95189    0 
C3       C      0.54972    0.05536    0.94756    0 
C3       C      0.04971    0.55535    0.94756    0 
H1       H      0.58183    0.06373    0.95314    0 
H1       H      0.08182    0.56373    0.95314    0 
C4       C      0.5498     0.02738    0.93471    0 
C4       C      0.0498     0.52737    0.93471    0 
C5       C      0.50001    0.01524    0.92739    0 
C5       C      0          0.51523    0.92739    0 
C5       C      0          0.48604    0.91329    0 
C5       C      0.50001    0.98603    0.91329    0 
C4       C      0.04927    0.47148    0.90808    0 
C4       C      0.54928    0.97147    0.90808    0 
C3       C      0.04746    0.44361    0.89556    0 
C3       C      0.54746    0.94361    0.89556    0 
H1       H      0.07953    0.43347    0.89196    0 
H1       H      0.57953    0.93347    0.89196    0 
C2       C      0          0.43091    0.88846    0 
C2       C      0.50001    0.93091    0.88846    0 
C6       C      0.60044    0.00721    0.93384    0 
C6       C      0.10044    0.50721    0.93384    0 
C6       C      0.09657    0.49292    0.90952    0 
C6       C      0.59657    0.99292    0.90952    0 
C1       C      0.50001    0.09937    0.96763    0 
C1       C      0          0.59936    0.96763    0 
C1       C      0          0.40116    0.87385    0 
C1       C      0.50001    0.90116    0.87385    0 
Zn1      Zn     0.43559    0.14521    0.99284    0 
Zn1      Zn     0.93559    0.64521    0.99284    0 
Zn1      Zn     0          0.29177    0.84927    0 
Zn1      Zn     0.50001    0.79177    0.84927    0 
O2       O      0          0.04154    0.71874    0 
O2       O      0.50001    0.54154    0.71874    0 
O2       O      0          0.07069    0.6862     0 
O2       O      0.50001    0.57068    0.6862     0 
O2       O      0          0.25809    0.82687    0 
O2       O      0.50001    0.75809    0.82687    0 
O2       O      0          0.28724    0.79569    0 
O2       O      0.50001    0.78723    0.79569    0 
O2       O      0.39119    0.17168    0.97389    0 
O2       O      0.8912     0.67168    0.97389    0 
O2       O      0.06236    0.28293    0.8693     0 
O2       O      0.56237    0.78293    0.8693     0 
C3       C      0          0.09469    0.74666    0 
C3       C      0.50001    0.59469    0.74666    0 
H1       H      0          0.07539    0.75406    0 
H1       H      0.50001    0.57538    0.75406    0 
C2       C      0          0.09576    0.72371    0 
C2       C      0.50001    0.59576    0.72371    0 
C3       C      0          0.12395    0.71295    0 
C3       C      0.50001    0.62395    0.71295    0 
H1       H      0          0.12477    0.69656    0 
H1       H      0.50001    0.62476    0.69656    0 
C6       C      0          0.20548    0.72707    0 
C6       C      0.50001    0.70547    0.72707    0 
C3       C      0          0.23416    0.76675    0 
C3       C      0.50001    0.73415    0.76675    0 
H1       H      0          0.2533     0.75908    0 
H1       H      0.50001    0.7533     0.75908    0 
C2       C      0          0.23251    0.79086    0 
C2       C      0.50001    0.7325     0.79086    0 
C3       C      0          0.20569    0.80042    0 
C3       C      0.50001    0.70568    0.80042    0 
H1       H      0          0.20404    0.81675    0 
H1       H      0.50001    0.70403    0.81675    0 
C6       C      0.9675     0.14942    0.79606    0 
C6       C      0.46749    0.64942    0.79606    0 
C6       C      0          0.12058    0.78681    0 
C6       C      0.50001    0.62057    0.78681    0 
C4       C      0          0.12149    0.76049    0 
C4       C      0.50001    0.62148    0.76049    0 
C5       C      0          0.15       0.74981    0 
C5       C      0.50001    0.65       0.74981    0 
C4       C      0          0.15219    0.7258     0 
C4       C      0.50001    0.65219    0.7258     0 
C4       C      0          0.20599    0.75374    0 
C4       C      0.50001    0.70599    0.75374    0 
C5       C      0          0.17864    0.76441    0 
C5       C      0.50001    0.67863    0.76441    0 
C4       C      0          0.1785     0.78658    0 
C4       C      0.50001    0.67849    0.78658    0 
C1       C      0          0.06743    0.70837    0 
C1       C      0.50001    0.56743    0.70837    0 
C1       C      0          0.26277    0.80544    0 
C1       C      0.50001    0.76276    0.80544    0 
C2       C      0.35598    0.21467    0.95189    0 
C2       C      0.85598    0.71466    0.95189    0 
C3       C      0.30816    0.19745    0.94756    0 
C3       C      0.80816    0.69745    0.94756    0 
H1       H      0.30465    0.17722    0.95314    0 
H1       H      0.80466    0.67721    0.95314    0 
C4       C      0.26618    0.21141    0.93471    0 
C4       C      0.76618    0.7114     0.93471    0 
C5       C      0.27287    0.24239    0.92739    0 
C5       C      0.77287    0.74239    0.92739    0 
C5       C      0.22907    0.25698    0.91329    0 
C5       C      0.72908    0.75697    0.91329    0 
C4       C      0.18258    0.23962    0.90808    0 
C4       C      0.68259    0.73962    0.90808    0 
C3       C      0.14169    0.25446    0.89556    0 
C3       C      0.6417     0.75446    0.89556    0 
H1       H      0.11043    0.24351    0.89196    0 
H1       H      0.61043    0.7435     0.89196    0 
C2       C      0.14636    0.28454    0.88846    0 
C2       C      0.64637    0.78453    0.88846    0 
C6       C      0.21058    0.19617    0.93384    0 
C6       C      0.71059    0.69617    0.93384    0 
C6       C      0.19112    0.20527    0.90952    0 
C6       C      0.69113    0.70526    0.90952    0 
C1       C      0.39909    0.20031    0.96763    0 
C1       C      0.89909    0.70031    0.96763    0 
C1       C      0.10173    0.29943    0.87385    0 
C1       C      0.60173    0.79942    0.87385    0 
O2       O      0.45311    0.10976    0.97389    0 
O2       O      0.95312    0.60976    0.97389    0 
O2       O      0.95562    0.38972    0.8693     0 
O2       O      0.45561    0.88972    0.8693     0 
C6       C      0.70789    0.40903    0.79606    0 
C6       C      0.20788    0.90902    0.79606    0 
C3       C      0.45025    0.05536    0.94756    0 
C3       C      0.95026    0.55535    0.94756    0 
H1       H      0.41818    0.06373    0.95314    0 
H1       H      0.91819    0.56373    0.95314    0 
C4       C      0.45021    0.02738    0.93471    0 
C4       C      0.95022    0.52737    0.93471    0 
C4       C      0.95074    0.47148    0.90808    0 
C4       C      0.45073    0.97147    0.90808    0 
C3       C      0.95255    0.44361    0.89556    0 
C3       C      0.45255    0.94361    0.89556    0 
H1       H      0.92048    0.43347    0.89196    0 
H1       H      0.42048    0.93347    0.89196    0 
C6       C      0.39957    0.00721    0.93384    0 
C6       C      0.89958    0.50721    0.93384    0 
C6       C      0.90344    0.49292    0.90952    0 
C6       C      0.40344    0.99292    0.90952    0 
O2       O      0.60878    0.17168    0.97389    0 
O2       O      0.10878    0.67168    0.97389    0 
O2       O      0.93765    0.28293    0.8693     0 
O2       O      0.43764    0.78293    0.8693     0 
C6       C      0.03835    0.1811     0.71666    0 
C6       C      0.53836    0.6811     0.71666    0 
C3       C      0.69181    0.19745    0.94756    0 
C3       C      0.19181    0.69745    0.94756    0 
H1       H      0.69532    0.17722    0.95314    0 
H1       H      0.19531    0.67721    0.95314    0 
C4       C      0.73383    0.21141    0.93471    0 
C4       C      0.23383    0.7114     0.93471    0 
C4       C      0.81743    0.23962    0.90808    0 
C4       C      0.31742    0.73962    0.90808    0 
C3       C      0.85832    0.25446    0.89556    0 
C3       C      0.35832    0.75446    0.89556    0 
H1       H      0.88958    0.24351    0.89196    0 
H1       H      0.38958    0.7435     0.89196    0 
C6       C      0.78939    0.19617    0.93384    0 
C6       C      0.28938    0.69617    0.93384    0 
C6       C      0.80889    0.20527    0.90952    0 
C6       C      0.30888    0.70526    0.90952    0 
O2       O      0.43808    0.21855    0.97389    0 
O2       O      0.93809    0.71855    0.97389    0 
O2       O      0.1068     0.32734    0.8693     0 
O2       O      0.60681    0.82733    0.8693     0 
C6       C      0.25961    0.44154    0.79606    0 
C6       C      0.75962    0.94154    0.79606    0 
C3       C      0.35791    0.24718    0.94756    0 
C3       C      0.85792    0.74718    0.94756    0 
H1       H      0.38652    0.25905    0.95314    0 
H1       H      0.88652    0.75904    0.95314    0 
C4       C      0.31597    0.26121    0.93471    0 
C4       C      0.81598    0.7612     0.93471    0 
C4       C      0.23185    0.28889    0.90808    0 
C4       C      0.73186    0.78888    0.90808    0 
C3       C      0.18915    0.30191    0.89556    0 
C3       C      0.68916    0.80191    0.89556    0 
H1       H      0.18995    0.32303    0.89196    0 
H1       H      0.68996    0.82303    0.89196    0 
C6       C      0.31106    0.29661    0.93384    0 
C6       C      0.81106    0.79661    0.93384    0 
C6       C      0.28765    0.30182    0.90952    0 
C6       C      0.78766    0.80182    0.90952    0 
Zn1      Zn     0          0.33334    0.37164    0 
Zn1      Zn     0.50001    0.83333    0.37164    0 
Zn1      Zn     0          0.37625    0.32615    0 
Zn1      Zn     0.50001    0.87625    0.32615    0 
Zn1      Zn     0.93765    0.02077    0.18261    0 
Zn1      Zn     0.43764    0.52077    0.18261    0 
Zn1      Zn     0          0          0.13463    0 
Zn1      Zn     0.50001    0.5        0.13463    0 
O1       O      0          0.33334    0.33773    0 
O1       O      0.50001    0.83333    0.33773    0 
O1       O      0          0          0.17048    0 
O1       O      0.50001    0.5        0.17048    0 
O2       O      0.56229    0.14591    0.05207    0 
O2       O      0.06228    0.6459     0.05207    0 
O2       O      0.60604    0.13133    0.01953    0 
O2       O      0.10604    0.63132    0.01953    0 
O2       O      0.88713    0.03763    0.1602     0 
O2       O      0.38712    0.53763    0.1602     0 
O2       O      0.93088    0.02305    0.12904    0 
O2       O      0.43087    0.52305    0.12904    0 
O2       O      0.06192    0.38523    0.30722    0 
O2       O      0.56193    0.88523    0.30722    0 
O2       O      0.3932     0.49402    0.20263    0 
O2       O      0.89321    0.99401    0.20263    0 
C3       C      0.64206    0.11932    0.07999    0 
C3       C      0.14205    0.61932    0.07999    0 
H1       H      0.61309    0.12898    0.08739    0 
H1       H      0.11309    0.62897    0.08739    0 
C2       C      0.64363    0.11879    0.05704    0 
C2       C      0.14362    0.61878    0.05704    0 
C3       C      0.68593    0.10469    0.04629    0 
C3       C      0.18593    0.60469    0.04629    0 
H1       H      0.68714    0.10427    0.02989    0 
H1       H      0.18713    0.60427    0.02989    0 
C6       C      0.8082     0.06394    0.0604     0 
C6       C      0.3082     0.56394    0.0604     0 
C3       C      0.85123    0.04959    0.10008    0 
C3       C      0.35122    0.54959    0.10008    0 
H1       H      0.87996    0.04003    0.09243    0 
H1       H      0.37995    0.54003    0.09243    0 
C2       C      0.84877    0.0504     0.12419    0 
C2       C      0.34877    0.5504     0.12419    0 
C3       C      0.80853    0.06383    0.13375    0 
C3       C      0.30852    0.56382    0.13375    0 
H1       H      0.80607    0.06464    0.15009    0 
H1       H      0.30606    0.56463    0.15009    0 
C6       C      0.7404     0.10821    0.12939    0 
C6       C      0.24039    0.6082     0.12939    0 
C6       C      0.68086    0.10639    0.12014    0 
C6       C      0.18085    0.60639    0.12014    0 
C4       C      0.68223    0.10593    0.09384    0 
C4       C      0.18222    0.60592    0.09384    0 
C5       C      0.72501    0.09167    0.08314    0 
C5       C      0.225      0.59166    0.08314    0 
C4       C      0.72827    0.09057    0.05914    0 
C4       C      0.22827    0.59057    0.05914    0 
C4       C      0.80897    0.06369    0.08707    0 
C4       C      0.30896    0.56368    0.08707    0 
C5       C      0.76796    0.07734    0.09774    0 
C5       C      0.26795    0.57733    0.09774    0 
C4       C      0.76776    0.07741    0.11991    0 
C4       C      0.26775    0.5774     0.11991    0 
C1       C      0.60113    0.13295    0.0417     0 
C1       C      0.10112    0.63295    0.0417     0 
C1       C      0.89418    0.03529    0.13877    0 
C1       C      0.39417    0.53528    0.13877    0 
C2       C      0.14399    0.38135    0.28522    0 
C2       C      0.64399    0.88134    0.28522    0 
C3       C      0.14209    0.41386    0.28089    0 
C3       C      0.6421     0.91386    0.28089    0 
H1       H      0.11349    0.42573    0.28648    0 
H1       H      0.6135     0.92572    0.28648    0 
C4       C      0.18403    0.42787    0.26802    0 
C4       C      0.68404    0.92786    0.26802    0 
C5       C      0.22714    0.40905    0.26072    0 
C5       C      0.72715    0.90904    0.26072    0 
C5       C      0.27093    0.42366    0.24662    0 
C5       C      0.77094    0.92365    0.24662    0 
C4       C      0.26815    0.45557    0.24141    0 
C4       C      0.76816    0.95556    0.24141    0 
C3       C      0.31086    0.46859    0.22889    0 
C3       C      0.81086    0.96859    0.22889    0 
H1       H      0.31005    0.48969    0.2253     0 
H1       H      0.81006    0.98969    0.2253     0 
C2       C      0.35364    0.45122    0.22179    0 
C2       C      0.85365    0.95121    0.22179    0 
C6       C      0.18895    0.46329    0.26719    0 
C6       C      0.68895    0.96329    0.26719    0 
C6       C      0.21231    0.46848    0.24285    0 
C6       C      0.71232    0.96847    0.24285    0 
C1       C      0.10096    0.36697    0.30096    0 
C1       C      0.60097    0.86697    0.30096    0 
C1       C      0.39824    0.46608    0.20718    0 
C1       C      0.89825    0.96608    0.20718    0 
Zn1      Zn     0.06438    0.31187    0.32615    0 
Zn1      Zn     0.56439    0.81186    0.32615    0 
Zn1      Zn     0.06232    0.02077    0.18261    0 
Zn1      Zn     0.56233    0.52077    0.18261    0 
O2       O      0.43768    0.14591    0.05207    0 
O2       O      0.93769    0.6459     0.05207    0 
O2       O      0.39397    0.13133    0.01953    0 
O2       O      0.89398    0.63132    0.01953    0 
O2       O      0.11289    0.03763    0.1602     0 
O2       O      0.61289    0.53763    0.1602     0 
O2       O      0.06913    0.02305    0.12904    0 
O2       O      0.56914    0.52305    0.12904    0 
O2       O      0.04689    0.27644    0.30722    0 
O2       O      0.5469     0.77644    0.30722    0 
O2       O      0.0444     0.05638    0.20263    0 
O2       O      0.5444     0.55638    0.20263    0 
C3       C      0.35795    0.11932    0.07999    0 
C3       C      0.85796    0.61932    0.07999    0 
H1       H      0.38692    0.12898    0.08739    0 
H1       H      0.88693    0.62897    0.08739    0 
C2       C      0.35634    0.11879    0.05704    0 
C2       C      0.85635    0.61878    0.05704    0 
C3       C      0.31408    0.10469    0.04629    0 
C3       C      0.81409    0.60469    0.04629    0 
H1       H      0.31283    0.10427    0.02989    0 
H1       H      0.81284    0.60427    0.02989    0 
C6       C      0.24753    0.05694    0.05001    0 
C6       C      0.74753    0.55694    0.05001    0 
C6       C      0.19181    0.06394    0.0604     0 
C6       C      0.69181    0.56394    0.0604     0 
C3       C      0.14874    0.04959    0.10008    0 
C3       C      0.64875    0.54959    0.10008    0 
H1       H      0.12006    0.04003    0.09243    0 
H1       H      0.62006    0.54003    0.09243    0 
C2       C      0.15124    0.0504     0.12419    0 
C2       C      0.65124    0.5504     0.12419    0 
C3       C      0.19149    0.06383    0.13375    0 
C3       C      0.69149    0.56382    0.13375    0 
H1       H      0.19394    0.06464    0.15009    0 
H1       H      0.69395    0.56463    0.15009    0 
C6       C      0.31916    0.10639    0.12014    0 
C6       C      0.81916    0.60639    0.12014    0 
C4       C      0.31779    0.10593    0.09384    0 
C4       C      0.81779    0.60592    0.09384    0 
C5       C      0.275      0.09167    0.08314    0 
C5       C      0.77501    0.59166    0.08314    0 
C4       C      0.27174    0.09057    0.05914    0 
C4       C      0.77174    0.59057    0.05914    0 
C4       C      0.19104    0.06369    0.08707    0 
C4       C      0.69105    0.56368    0.08707    0 
C5       C      0.23206    0.07734    0.09774    0 
C5       C      0.73206    0.57733    0.09774    0 
C4       C      0.23226    0.07741    0.11991    0 
C4       C      0.73226    0.5774     0.11991    0 
C1       C      0.39888    0.13295    0.0417     0 
C1       C      0.89889    0.63295    0.0417     0 
C1       C      0.10583    0.03529    0.13877    0 
C1       C      0.60584    0.53528    0.13877    0 
C2       C      0          0.23732    0.28522    0 
C2       C      0.50001    0.73732    0.28522    0 
C3       C      0.04975    0.22202    0.28089    0 
C3       C      0.54976    0.72201    0.28089    0 
H1       H      0.08182    0.23039    0.28648    0 
H1       H      0.58183    0.73038    0.28648    0 
C4       C      0.0498     0.19403    0.26802    0 
C4       C      0.5498     0.69403    0.26802    0 
C5       C      0          0.18192    0.26072    0 
C5       C      0.50001    0.68191    0.26072    0 
C5       C      0          0.15272    0.24662    0 
C5       C      0.50001    0.65272    0.24662    0 
C4       C      0.04927    0.13814    0.24141    0 
C4       C      0.54928    0.63814    0.24141    0 
C3       C      0.04746    0.11028    0.22889    0 
C3       C      0.54746    0.61027    0.22889    0 
H1       H      0.07953    0.10013    0.2253     0 
H1       H      0.57953    0.60013    0.2253     0 
C2       C      0          0.09758    0.22179    0 
C2       C      0.50001    0.59757    0.22179    0 
C6       C      0.09214    0.18778    0.24772    0 
C6       C      0.59214    0.68777    0.24772    0 
C6       C      0.09657    0.15959    0.24285    0 
C6       C      0.59657    0.65958    0.24285    0 
C1       C      0          0.26605    0.30096    0 
C1       C      0.50001    0.76604    0.30096    0 
C1       C      0          0.06783    0.20718    0 
C1       C      0.50001    0.56782    0.20718    0 
Zn1      Zn     0.93563    0.31187    0.32615    0 
Zn1      Zn     0.43563    0.81186    0.32615    0 
Zn1      Zn     0.50001    0.45845    0.18261    0 
Zn1      Zn     0          0.95845    0.18261    0 
O2       O      0.50001    0.2082     0.05207    0 
O2       O      0          0.70819    0.05207    0 
O2       O      0.50001    0.23734    0.01953    0 
O2       O      0          0.73734    0.01953    0 
O2       O      0.50001    0.42475    0.1602     0 
O2       O      0          0.92474    0.1602     0 
O2       O      0.50001    0.45392    0.12904    0 
O2       O      0          0.95391    0.12904    0 
O2       O      0.89124    0.33834    0.30722    0 
O2       O      0.39123    0.83833    0.30722    0 
O2       O      0.56241    0.44959    0.20263    0 
O2       O      0.06241    0.94959    0.20263    0 
C3       C      0.50001    0.26135    0.07999    0 
C3       C      0          0.76134    0.07999    0 
H1       H      0.50001    0.24207    0.08739    0 
H1       H      0          0.74206    0.08739    0 
C2       C      0.50001    0.26244    0.05704    0 
C2       C      0          0.76244    0.05704    0 
C3       C      0.50001    0.29063    0.04629    0 
C3       C      0          0.79063    0.04629    0 
H1       H      0.50001    0.29145    0.02989    0 
H1       H      0          0.79144    0.02989    0 
C6       C      0.50001    0.37214    0.0604     0 
C6       C      0          0.87213    0.0604     0 
C3       C      0.50001    0.40084    0.10008    0 
C3       C      0          0.90083    0.10008    0 
H1       H      0.50001    0.41996    0.09243    0 
H1       H      0          0.91995    0.09243    0 
C2       C      0.50001    0.39919    0.12419    0 
C2       C      0          0.89918    0.12419    0 
C3       C      0.50001    0.37234    0.13375    0 
C3       C      0          0.87234    0.13375    0 
H1       H      0.50001    0.37069    0.15009    0 
H1       H      0          0.87069    0.15009    0 
C6       C      0.46749    0.3161     0.12939    0 
C6       C      0.9675     0.8161     0.12939    0 
C6       C      0.50001    0.28724    0.12014    0 
C6       C      0          0.78723    0.12014    0 
C4       C      0.50001    0.28814    0.09384    0 
C4       C      0          0.78814    0.09384    0 
C5       C      0.50001    0.31668    0.08314    0 
C5       C      0          0.81668    0.08314    0 
C4       C      0.50001    0.31885    0.05914    0 
C4       C      0          0.81884    0.05914    0 
C4       C      0.50001    0.37265    0.08707    0 
C4       C      0          0.87264    0.08707    0 
C5       C      0.50001    0.34529    0.09774    0 
C5       C      0          0.84529    0.09774    0 
C4       C      0.50001    0.34515    0.11991    0 
C4       C      0          0.84515    0.11991    0 
C1       C      0.50001    0.23409    0.0417     0 
C1       C      0          0.73408    0.0417     0 
C1       C      0.50001    0.42945    0.13877    0 
C1       C      0          0.92944    0.13877    0 
C2       C      0.85603    0.38135    0.28522    0 
C2       C      0.35602    0.88134    0.28522    0 
C3       C      0.80816    0.36411    0.28089    0 
C3       C      0.30816    0.86411    0.28089    0 
H1       H      0.80466    0.34387    0.28648    0 
H1       H      0.30465    0.84387    0.28648    0 
C4       C      0.76618    0.37809    0.26802    0 
C4       C      0.26618    0.87809    0.26802    0 
C5       C      0.77287    0.40905    0.26072    0 
C5       C      0.27287    0.90904    0.26072    0 
C5       C      0.72908    0.42366    0.24662    0 
C5       C      0.22907    0.92365    0.24662    0 
C4       C      0.68259    0.4063     0.24141    0 
C4       C      0.18258    0.9063     0.24141    0 
C3       C      0.6417     0.42112    0.22889    0 
C3       C      0.14169    0.92112    0.22889    0 
H1       H      0.61043    0.41017    0.2253     0 
H1       H      0.11043    0.91016    0.2253     0 
C2       C      0.64637    0.45122    0.22179    0 
C2       C      0.14636    0.95121    0.22179    0 
C6       C      0.71059    0.36283    0.26719    0 
C6       C      0.21058    0.86283    0.26719    0 
C6       C      0.69113    0.37193    0.24285    0 
C6       C      0.19112    0.87192    0.24285    0 
C1       C      0.89905    0.36697    0.30096    0 
C1       C      0.39905    0.86697    0.30096    0 
C1       C      0.60173    0.46608    0.20718    0 
C1       C      0.10173    0.96608    0.20718    0 
O2       O      0.95312    0.27644    0.30722    0 
O2       O      0.45311    0.77644    0.30722    0 
O2       O      0.95562    0.05638    0.20263    0 
O2       O      0.45561    0.55638    0.20263    0 
C6       C      0.75245    0.05694    0.05001    0 
C6       C      0.25244    0.55694    0.05001    0 
C3       C      0.95026    0.22202    0.28089    0 
C3       C      0.45025    0.72201    0.28089    0 
H1       H      0.91819    0.23039    0.28648    0 
H1       H      0.41818    0.73038    0.28648    0 
C4       C      0.95022    0.19403    0.26802    0 
C4       C      0.45021    0.69403    0.26802    0 
C4       C      0.95074    0.13814    0.24141    0 
C4       C      0.45073    0.63814    0.24141    0 
C3       C      0.95255    0.11028    0.22889    0 
C3       C      0.45255    0.61027    0.22889    0 
H1       H      0.92048    0.10013    0.2253     0 
H1       H      0.42048    0.60013    0.2253     0 
C6       C      0.89958    0.17389    0.26719    0 
C6       C      0.39957    0.67389    0.26719    0 
C6       C      0.90344    0.15959    0.24285    0 
C6       C      0.40344    0.65958    0.24285    0 
O2       O      0.10878    0.33834    0.30722    0 
O2       O      0.60878    0.83833    0.30722    0 
O2       O      0.4376     0.44959    0.20263    0 
O2       O      0.93761    0.94959    0.20263    0 
C6       C      0.53836    0.34776    0.05001    0 
C6       C      0.03835    0.84775    0.05001    0 
C3       C      0.19185    0.36411    0.28089    0 
C3       C      0.69185    0.86411    0.28089    0 
H1       H      0.19535    0.34387    0.28648    0 
H1       H      0.69536    0.84387    0.28648    0 
C4       C      0.23383    0.37809    0.26802    0 
C4       C      0.73383    0.87809    0.26802    0 
C4       C      0.31742    0.4063     0.24141    0 
C4       C      0.81743    0.9063     0.24141    0 
C3       C      0.35832    0.42112    0.22889    0 
C3       C      0.85832    0.92112    0.22889    0 
H1       H      0.38958    0.41017    0.2253     0 
H1       H      0.88958    0.91016    0.2253     0 
C6       C      0.28938    0.36283    0.26719    0 
C6       C      0.78939    0.86283    0.26719    0 
C6       C      0.30888    0.37193    0.24285    0 
C6       C      0.80889    0.87192    0.24285    0 
O2       O      0.93813    0.38523    0.30722    0 
O2       O      0.43812    0.88523    0.30722    0 
O2       O      0.60681    0.49402    0.20263    0 
O2       O      0.1068     0.99401    0.20263    0 
C6       C      0.25961    0.10821    0.12939    0 
C6       C      0.75962    0.6082     0.12939    0 
C3       C      0.85792    0.41386    0.28089    0 
C3       C      0.35791    0.91386    0.28089    0 
H1       H      0.88652    0.42573    0.28648    0 
H1       H      0.38652    0.92572    0.28648    0 
C4       C      0.81598    0.42787    0.26802    0 
C4       C      0.31597    0.92786    0.26802    0 
C4       C      0.73186    0.45557    0.24141    0 
C4       C      0.23185    0.95556    0.24141    0 
C3       C      0.6892     0.46859    0.22889    0 
C3       C      0.18919    0.96859    0.22889    0 
H1       H      0.68996    0.48969    0.2253     0 
H1       H      0.18995    0.98969    0.2253     0 
C6       C      0.81106    0.46329    0.26719    0 
C6       C      0.31106    0.96329    0.26719    0 
C6       C      0.7877     0.46848    0.24285    0 
C6       C      0.28769    0.96847    0.24285    0 
Zn1      Zn     0          0          0.70497    0 
Zn1      Zn     0.50001    0.5        0.70497    0 
Zn1      Zn     0          0.04291    0.6595     0 
Zn1      Zn     0.50001    0.54291    0.6595     0 
Zn1      Zn     0.43768    0.18745    0.51593    0 
Zn1      Zn     0.93769    0.68745    0.51593    0 
Zn1      Zn     0.50001    0.16666    0.46797    0 
Zn1      Zn     0          0.66665    0.46797    0 
O1       O      0          0          0.67108    0 
O1       O      0.50001    0.5        0.67108    0 
O1       O      0.50001    0.16666    0.5038     0 
O1       O      0          0.66665    0.5038     0 
O2       O      0.06232    0.31257    0.38539    0 
O2       O      0.56233    0.81256    0.38539    0 
O2       O      0.10604    0.29798    0.35286    0 
O2       O      0.60604    0.79798    0.35286    0 
O2       O      0.38712    0.20429    0.49355    0 
O2       O      0.88713    0.70429    0.49355    0 
O2       O      0.43087    0.18971    0.46237    0 
O2       O      0.93088    0.6897     0.46237    0 
O2       O      0.06188    0.05189    0.64056    0 
O2       O      0.56189    0.55189    0.64056    0 
O2       O      0.3932     0.16068    0.53597    0 
O2       O      0.89321    0.66067    0.53597    0 
C3       C      0.14201    0.28598    0.41333    0 
C3       C      0.64202    0.78598    0.41333    0 
H1       H      0.11309    0.29563    0.42073    0 
H1       H      0.61309    0.79563    0.42073    0 
C2       C      0.14366    0.28545    0.39036    0 
C2       C      0.64367    0.78544    0.39036    0 
C3       C      0.18593    0.27135    0.37961    0 
C3       C      0.68593    0.77135    0.37961    0 
H1       H      0.18713    0.27095    0.36324    0 
H1       H      0.68714    0.77095    0.36324    0 
C6       C      0.3082     0.2306     0.39375    0 
C6       C      0.8082     0.73059    0.39375    0 
C3       C      0.35127    0.21625    0.43342    0 
C3       C      0.85127    0.71624    0.43342    0 
H1       H      0.37995    0.20669    0.42576    0 
H1       H      0.87996    0.70668    0.42576    0 
C2       C      0.34877    0.21708    0.45754    0 
C2       C      0.84877    0.71708    0.45754    0 
C3       C      0.30852    0.23048    0.46707    0 
C3       C      0.80853    0.73048    0.46707    0 
H1       H      0.30606    0.23132    0.48341    0 
H1       H      0.80607    0.73132    0.48341    0 
C6       C      0.18085    0.27305    0.45346    0 
C6       C      0.68086    0.77304    0.45346    0 
C4       C      0.18222    0.27261    0.42717    0 
C4       C      0.68223    0.7726     0.42717    0 
C5       C      0.225      0.25832    0.41649    0 
C5       C      0.72501    0.75832    0.41649    0 
C4       C      0.22827    0.25723    0.39248    0 
C4       C      0.72827    0.75723    0.39248    0 
C4       C      0.30896    0.23034    0.42042    0 
C4       C      0.80897    0.73034    0.42042    0 
C5       C      0.26795    0.24402    0.43106    0 
C5       C      0.76796    0.74402    0.43106    0 
C4       C      0.26775    0.24409    0.45324    0 
C4       C      0.76776    0.74409    0.45324    0 
C1       C      0.10112    0.29961    0.37503    0 
C1       C      0.60113    0.79961    0.37503    0 
C1       C      0.39413    0.20194    0.47211    0 
C1       C      0.89414    0.70194    0.47211    0 
C2       C      0.14403    0.04801    0.61857    0 
C2       C      0.64403    0.548      0.61857    0 
C3       C      0.14209    0.08053    0.61421    0 
C3       C      0.6421     0.58052    0.61421    0 
H1       H      0.11349    0.09239    0.6198     0 
H1       H      0.6135     0.59238    0.6198     0 
C4       C      0.18403    0.09453    0.60136    0 
C4       C      0.68404    0.59452    0.60136    0 
C5       C      0.22714    0.07571    0.59407    0 
C5       C      0.72715    0.57571    0.59407    0 
C5       C      0.27093    0.09032    0.57997    0 
C5       C      0.77094    0.59031    0.57997    0 
C4       C      0.26815    0.12223    0.57473    0 
C4       C      0.76816    0.62223    0.57473    0 
C3       C      0.31082    0.13526    0.56223    0 
C3       C      0.81082    0.63525    0.56223    0 
H1       H      0.31005    0.15635    0.55864    0 
H1       H      0.81006    0.65635    0.55864    0 
C2       C      0.35364    0.11788    0.55511    0 
C2       C      0.85365    0.61788    0.55511    0 
C6       C      0.18895    0.12995    0.60052    0 
C6       C      0.68895    0.62995    0.60052    0 
C6       C      0.21231    0.13514    0.57618    0 
C6       C      0.71232    0.63514    0.57618    0 
C1       C      0.10092    0.03363    0.63429    0 
C1       C      0.60093    0.53363    0.63429    0 
C1       C      0.39828    0.13274    0.5405     0 
C1       C      0.89829    0.63274    0.5405     0 
Zn1      Zn     0.56443    0.47853    0.6595     0 
Zn1      Zn     0.06442    0.97852    0.6595     0 
Zn1      Zn     0.56233    0.18745    0.51593    0 
Zn1      Zn     0.06232    0.68745    0.51593    0 
O2       O      0.93769    0.31257    0.38539    0 
O2       O      0.43768    0.81256    0.38539    0 
O2       O      0.89398    0.29798    0.35286    0 
O2       O      0.39397    0.79798    0.35286    0 
O2       O      0.61285    0.20429    0.49355    0 
O2       O      0.11284    0.70429    0.49355    0 
O2       O      0.56914    0.18971    0.46237    0 
O2       O      0.06913    0.6897     0.46237    0 
O2       O      0.5469     0.4431     0.64056    0 
O2       O      0.04689    0.9431     0.64056    0 
O2       O      0.5444     0.22306    0.53597    0 
O2       O      0.0444     0.72306    0.53597    0 
C3       C      0.85796    0.28598    0.41333    0 
C3       C      0.35795    0.78598    0.41333    0 
H1       H      0.88693    0.29563    0.42073    0 
H1       H      0.38692    0.79563    0.42073    0 
C2       C      0.85639    0.28545    0.39036    0 
C2       C      0.35638    0.78544    0.39036    0 
C3       C      0.81409    0.27135    0.37961    0 
C3       C      0.31408    0.77135    0.37961    0 
H1       H      0.81288    0.27095    0.36324    0 
H1       H      0.31287    0.77095    0.36324    0 
C6       C      0.69181    0.2306     0.39375    0 
C6       C      0.19181    0.73059    0.39375    0 
C3       C      0.64875    0.21625    0.43342    0 
C3       C      0.14874    0.71624    0.43342    0 
H1       H      0.62006    0.20669    0.42576    0 
H1       H      0.12006    0.70668    0.42576    0 
C2       C      0.65124    0.21708    0.45754    0 
C2       C      0.15124    0.71708    0.45754    0 
C3       C      0.69149    0.23048    0.46707    0 
C3       C      0.19149    0.73048    0.46707    0 
H1       H      0.69395    0.23132    0.48341    0 
H1       H      0.19394    0.73132    0.48341    0 
C6       C      0.79213    0.24237    0.46274    0 
C6       C      0.29212    0.74236    0.46274    0 
C6       C      0.81916    0.27305    0.45346    0 
C6       C      0.31916    0.77304    0.45346    0 
C4       C      0.81779    0.27261    0.42717    0 
C4       C      0.31779    0.7726     0.42717    0 
C5       C      0.77501    0.25832    0.41649    0 
C5       C      0.275      0.75832    0.41649    0 
C4       C      0.77174    0.25723    0.39248    0 
C4       C      0.27174    0.75723    0.39248    0 
C4       C      0.69105    0.23034    0.42042    0 
C4       C      0.19104    0.73034    0.42042    0 
C5       C      0.73206    0.24402    0.43106    0 
C5       C      0.23206    0.74402    0.43106    0 
C4       C      0.73226    0.24409    0.45324    0 
C4       C      0.23226    0.74409    0.45324    0 
C1       C      0.89889    0.29961    0.37503    0 
C1       C      0.39888    0.79961    0.37503    0 
C1       C      0.60584    0.20194    0.47211    0 
C1       C      0.10583    0.70194    0.47211    0 
C2       C      0.50001    0.404      0.61857    0 
C2       C      0          0.904      0.61857    0 
C3       C      0.54972    0.3887     0.61421    0 
C3       C      0.04971    0.88869    0.61421    0 
H1       H      0.58183    0.39707    0.6198     0 
H1       H      0.08182    0.89707    0.6198     0 
C4       C      0.5498     0.36071    0.60136    0 
C4       C      0.0498     0.86071    0.60136    0 
C5       C      0.50001    0.34857    0.59407    0 
C5       C      0          0.84857    0.59407    0 
C5       C      0.50001    0.31938    0.57997    0 
C5       C      0          0.81938    0.57997    0 
C4       C      0.54928    0.30482    0.57473    0 
C4       C      0.04927    0.80482    0.57473    0 
C3       C      0.54746    0.27696    0.56223    0 
C3       C      0.04746    0.77695    0.56223    0 
H1       H      0.57953    0.26679    0.55864    0 
H1       H      0.07953    0.76679    0.55864    0 
C2       C      0.50001    0.26423    0.55511    0 
C2       C      0          0.76423    0.55511    0 
C6       C      0.60044    0.34055    0.60052    0 
C6       C      0.10044    0.84054    0.60052    0 
C6       C      0.59657    0.32627    0.57618    0 
C6       C      0.09657    0.82626    0.57618    0 
C1       C      0.50001    0.4327     0.63429    0 
C1       C      0          0.9327     0.63429    0 
C1       C      0.50001    0.23448    0.5405     0 
C1       C      0          0.73448    0.5405     0 
Zn1      Zn     0.43563    0.47853    0.6595     0 
Zn1      Zn     0.93563    0.97852    0.6595     0 
Zn1      Zn     0.50001    0.12512    0.51593    0 
Zn1      Zn     0          0.62511    0.51593    0 
O2       O      0          0.37488    0.38539    0 
O2       O      0.50001    0.87488    0.38539    0 
O2       O      0          0.40402    0.35286    0 
O2       O      0.50001    0.90402    0.35286    0 
O2       O      0.50001    0.09141    0.49355    0 
O2       O      0          0.59141    0.49355    0 
O2       O      0.50001    0.12058    0.46237    0 
O2       O      0          0.62057    0.46237    0 
O2       O      0.8912     0.005      0.64056    0 
O2       O      0.39119    0.505      0.64056    0 
O2       O      0.56237    0.11628    0.53597    0 
O2       O      0.06236    0.61627    0.53597    0 
C3       C      0          0.42803    0.41333    0 
C3       C      0.50001    0.92802    0.41333    0 
H1       H      0          0.40872    0.42073    0 
H1       H      0.50001    0.90872    0.42073    0 
C2       C      0          0.4291     0.39036    0 
C2       C      0.50001    0.92909    0.39036    0 
C3       C      0          0.45729    0.37961    0 
C3       C      0.50001    0.95729    0.37961    0 
H1       H      0          0.4581     0.36324    0 
H1       H      0.50001    0.9581     0.36324    0 
C6       C      0.50001    0.0388     0.39375    0 
C6       C      0          0.53879    0.39375    0 
C3       C      0.50001    0.0675     0.43342    0 
C3       C      0          0.5675     0.43342    0 
H1       H      0.50001    0.08662    0.42576    0 
H1       H      0          0.58662    0.42576    0 
C2       C      0.50001    0.06585    0.45754    0 
C2       C      0          0.56584    0.45754    0 
C3       C      0.50001    0.03901    0.46707    0 
C3       C      0          0.539      0.46707    0 
H1       H      0.50001    0.03738    0.48341    0 
H1       H      0          0.53737    0.48341    0 
C6       C      0.9675     0.48276    0.46274    0 
C6       C      0.46749    0.98276    0.46274    0 
C6       C      0          0.45389    0.45346    0 
C6       C      0.50001    0.95389    0.45346    0 
C4       C      0          0.4548     0.42717    0 
C4       C      0.50001    0.9548     0.42717    0 
C5       C      0          0.48334    0.41649    0 
C5       C      0.50001    0.98334    0.41649    0 
C4       C      0          0.48553    0.39248    0 
C4       C      0.50001    0.98552    0.39248    0 
C4       C      0.50001    0.03931    0.42042    0 
C4       C      0          0.5393     0.42042    0 
C5       C      0.50001    0.01196    0.43106    0 
C5       C      0          0.51195    0.43106    0 
C4       C      0.50001    0.01182    0.45324    0 
C4       C      0          0.51181    0.45324    0 
C1       C      0          0.40075    0.37503    0 
C1       C      0.50001    0.90074    0.37503    0 
C1       C      0.50001    0.09611    0.47211    0 
C1       C      0          0.59611    0.47211    0 
C2       C      0.85598    0.04801    0.61857    0 
C2       C      0.35598    0.548      0.61857    0 
C3       C      0.80816    0.0308     0.61421    0 
C3       C      0.30816    0.53079    0.61421    0 
H1       H      0.80466    0.01056    0.6198     0 
H1       H      0.30465    0.51056    0.6198     0 
C4       C      0.76618    0.04475    0.60136    0 
C4       C      0.26618    0.54475    0.60136    0 
C5       C      0.77287    0.07571    0.59407    0 
C5       C      0.27287    0.57571    0.59407    0 
C5       C      0.72908    0.09032    0.57997    0 
C5       C      0.22907    0.59031    0.57997    0 
C4       C      0.68259    0.07297    0.57473    0 
C4       C      0.18258    0.57296    0.57473    0 
C3       C      0.6417     0.08778    0.56223    0 
C3       C      0.14169    0.58778    0.56223    0 
H1       H      0.61043    0.07685    0.55864    0 
H1       H      0.11043    0.57685    0.55864    0 
C2       C      0.64637    0.11788    0.55511    0 
C2       C      0.14636    0.61788    0.55511    0 
C6       C      0.71059    0.02949    0.60052    0 
C6       C      0.21058    0.52949    0.60052    0 
C6       C      0.69113    0.03859    0.57618    0 
C6       C      0.19112    0.53858    0.57618    0 
C1       C      0.89905    0.03363    0.63429    0 
C1       C      0.39905    0.53363    0.63429    0 
C1       C      0.60173    0.13274    0.5405     0 
C1       C      0.10173    0.63274    0.5405     0 
O2       O      0.45311    0.4431     0.64056    0 
O2       O      0.95312    0.9431     0.64056    0 
O2       O      0.45557    0.22306    0.53597    0 
O2       O      0.95558    0.72306    0.53597    0 
C6       C      0.25248    0.2236     0.38333    0 
C6       C      0.75249    0.72359    0.38333    0 
C6       C      0.20788    0.24237    0.46274    0 
C6       C      0.70789    0.74236    0.46274    0 
C3       C      0.45025    0.3887     0.61421    0 
C3       C      0.95026    0.88869    0.61421    0 
H1       H      0.41814    0.39707    0.6198     0 
H1       H      0.91815    0.89707    0.6198     0 
C4       C      0.45021    0.36071    0.60136    0 
C4       C      0.95022    0.86071    0.60136    0 
C4       C      0.45073    0.30482    0.57473    0 
C4       C      0.95074    0.80482    0.57473    0 
C3       C      0.45251    0.27696    0.56223    0 
C3       C      0.95251    0.77695    0.56223    0 
H1       H      0.42048    0.26679    0.55864    0 
H1       H      0.92048    0.76679    0.55864    0 
C6       C      0.39957    0.34055    0.60052    0 
C6       C      0.89958    0.84054    0.60052    0 
C6       C      0.40344    0.32627    0.57618    0 
C6       C      0.90344    0.82626    0.57618    0 
O2       O      0.10878    0.005      0.64056    0 
O2       O      0.60878    0.505      0.64056    0 
O2       O      0.43764    0.11628    0.53597    0 
O2       O      0.93765    0.61627    0.53597    0 
C6       C      0.53836    0.01444    0.38333    0 
C6       C      0.03835    0.51444    0.38333    0 
C3       C      0.19185    0.0308     0.61421    0 
C3       C      0.69185    0.53079    0.61421    0 
H1       H      0.19531    0.01056    0.6198     0 
H1       H      0.69532    0.51056    0.6198     0 
C4       C      0.23383    0.04475    0.60136    0 
C4       C      0.73383    0.54475    0.60136    0 
C4       C      0.31742    0.07297    0.57473    0 
C4       C      0.81743    0.57296    0.57473    0 
C3       C      0.35832    0.08778    0.56223    0 
C3       C      0.85832    0.58778    0.56223    0 
H1       H      0.38958    0.07685    0.55864    0 
H1       H      0.88958    0.57685    0.55864    0 
C6       C      0.28938    0.02949    0.60052    0 
C6       C      0.78939    0.52949    0.60052    0 
C6       C      0.30888    0.03859    0.57618    0 
C6       C      0.80889    0.53858    0.57618    0 
O2       O      0.93809    0.05189    0.64056    0 
O2       O      0.43808    0.55189    0.64056    0 
O2       O      0.60681    0.16068    0.53597    0 
O2       O      0.1068     0.66067    0.53597    0 
C6       C      0.70918    0.26198    0.38333    0 
C6       C      0.20917    0.76197    0.38333    0 
C3       C      0.85792    0.08053    0.61421    0 
C3       C      0.35791    0.58052    0.61421    0 
H1       H      0.88652    0.09239    0.6198     0 
H1       H      0.38652    0.59238    0.6198     0 
C4       C      0.81598    0.09453    0.60136    0 
C4       C      0.31597    0.59452    0.60136    0 
C4       C      0.73186    0.12223    0.57473    0 
C4       C      0.23185    0.62223    0.57473    0 
C3       C      0.68916    0.13526    0.56223    0 
C3       C      0.18915    0.63525    0.56223    0 
H1       H      0.68996    0.15635    0.55864    0 
H1       H      0.18995    0.65635    0.55864    0 
C6       C      0.81106    0.12995    0.60052    0 
C6       C      0.31106    0.62995    0.60052    0 
C6       C      0.78766    0.13514    0.57618    0 
C6       C      0.28765    0.63514    0.57618    0 
H2       H      0.15813    0.19485    0.90637    0 
H2       H      0.65813    0.69484    0.90637    0 
H2       H      0.21719    0.1992     0.89815    0 
H2       H      0.7172     0.69919    0.89815    0 
H2       H      0.21429    0.17433    0.93582    0 
H2       H      0.71429    0.67433    0.93582    0 
H2       H      0.18774    0.20462    0.94565    0 
H2       H      0.68774    0.70461    0.94565    0 
H2       H      0.30993    0.29177    0.89822    0 
H2       H      0.80994    0.79177    0.89822    0 
H2       H      0.28668    0.3235     0.90628    0 
H2       H      0.78669    0.82349    0.90628    0 
H2       H      0.28793    0.30345    0.94615    0 
H2       H      0.78794    0.80344    0.94615    0 
H2       H      0.3455     0.3061     0.93517    0 
H2       H      0.84551    0.8061     0.93517    0 
H2       H      0.70656    0.40868    0.81281    0 
H2       H      0.20655    0.90867    0.81281    0 
H2       H      0.69008    0.39135    0.78975    0 
H2       H      0.19008    0.89134    0.78975    0 
H2       H      0.70011    0.45734    0.79241    0 
H2       H      0.20011    0.95733    0.79241    0 
H2       H      0.64456    0.44068    0.79208    0 
H2       H      0.14455    0.94068    0.79208    0 
H2       H      0.81123    0.44485    0.72371    0 
H2       H      0.31122    0.94484    0.72371    0 
H2       H      0.79334    0.42889    0.69995    0 
H2       H      0.29333    0.92889    0.69995    0 
H2       H      0.78395    0.38151    0.72209    0 
H2       H      0.28395    0.8815     0.72209    0 
H2       H      0.84325    0.39237    0.72147    0 
H2       H      0.34325    0.89237    0.72147    0 
H2       H      0.91194    0.51202    0.90194    0 
H2       H      0.41194    0.01202    0.90194    0 
H2       H      0.87335    0.48364    0.90194    0 
H2       H      0.37334    0.98364    0.90194    0 
H2       H      0.33596    0.42128    0.79241    0 
H2       H      0.83596    0.92128    0.79241    0 
H2       H      0.33874    0.45738    0.79208    0 
H2       H      0.83874    0.95738    0.79208    0 
H2       H      0.25973    0.4424     0.81281    0 
H2       H      0.75974    0.9424     0.81281    0 
H2       H      0.24201    0.45929    0.78975    0 
H2       H      0.74201    0.95929    0.78975    0 
H2       H      0.18029    0.41728    0.72209    0 
H2       H      0.68029    0.91728    0.72209    0 
H2       H      0.16691    0.38218    0.72147    0 
H2       H      0.66692    0.88218    0.72147    0 
H2       H      0.26167    0.37195    0.72371    0 
H2       H      0.76167    0.87194    0.72371    0 
H2       H      0.24668    0.38888    0.69995    0 
H2       H      0.74669    0.88888    0.69995    0 
H2       H      0.9648     0.20085    0.72156    0 
H2       H      0.46479    0.70084    0.72156    0 
H2       H      0.01019    0.22544    0.72147    0 
H2       H      0.5102     0.72543    0.72147    0 
H2       H      0.04129    0.18417    0.70012    0 
H2       H      0.5413     0.68417    0.70012    0 
H2       H      0.07252    0.18119    0.72422    0 
H2       H      0.57252    0.68119    0.72422    0 
H2       H      0.93189    0.14877    0.78996    0 
H2       H      0.43188    0.64877    0.78996    0 
H2       H      0.96682    0.14951    0.81281    0 
H2       H      0.46681    0.64951    0.81281    0 
H2       H      0.0359     0.12151    0.79257    0 
H2       H      0.5359     0.62151    0.79257    0 
H2       H      0.98329    0.10195    0.79208    0 
H2       H      0.48329    0.60194    0.79208    0 
H2       H      0.40739    0.34241    0.5649     0 
H2       H      0.90739    0.8424     0.5649     0 
H2       H      0.37141    0.31494    0.57295    0 
H2       H      0.87141    0.81493    0.57295    0 
H2       H      0.40086    0.32557    0.61282    0 
H2       H      0.90086    0.82556    0.61282    0 
H2       H      0.36811    0.35304    0.60182    0 
H2       H      0.86811    0.85303    0.60182    0 
H2       H      0.63138    0.35332    0.60248    0 
H2       H      0.13138    0.85331    0.60248    0 
H2       H      0.59919    0.32489    0.61233    0 
H2       H      0.09919    0.82489    0.61233    0 
H2       H      0.62864    0.31496    0.57304    0 
H2       H      0.12864    0.81496    0.57304    0 
H2       H      0.59263    0.34232    0.56483    0 
H2       H      0.09262    0.84231    0.56483    0 
H2       H      0.2132     0.15684    0.57304    0 
H2       H      0.71321    0.65684    0.57304    0 
H2       H      0.1902     0.12514    0.56483    0 
H2       H      0.6902     0.62513    0.56483    0 
H2       H      0.80994    0.12509    0.5649     0 
H2       H      0.30993    0.62509    0.5649     0 
H2       H      0.78669    0.15682    0.57295    0 
H2       H      0.28668    0.65681    0.57295    0 
H2       H      0.78794    0.13679    0.61282    0 
H2       H      0.28793    0.63679    0.61282    0 
H2       H      0.84547    0.13942    0.60182    0 
H2       H      0.34546    0.63942    0.60182    0 
H2       H      0.65813    0.02819    0.57304    0 
H2       H      0.15813    0.52819    0.57304    0 
H2       H      0.7172     0.03254    0.56483    0 
H2       H      0.21719    0.53254    0.56483    0 
H2       H      0.71429    0.00765    0.60248    0 
H2       H      0.21429    0.50765    0.60248    0 
H2       H      0.68774    0.03796    0.61233    0 
H2       H      0.18774    0.53796    0.61233    0 
H2       H      0.78794    0.47013    0.27948    0 
H2       H      0.28793    0.97012    0.27948    0 
H2       H      0.84551    0.47276    0.2685     0 
H2       H      0.3455     0.97275    0.2685     0 
H2       H      0.80994    0.45843    0.23155    0 
H2       H      0.30993    0.95843    0.23155    0 
H2       H      0.78673    0.49016    0.23963    0 
H2       H      0.28672    0.99015    0.23963    0 
H2       H      0.65813    0.36151    0.23971    0 
H2       H      0.15813    0.8615     0.23971    0 
H2       H      0.7172     0.36586    0.23148    0 
H2       H      0.21719    0.86585    0.23148    0 
H2       H      0.71429    0.34099    0.26913    0 
H2       H      0.21429    0.84099    0.26913    0 
H2       H      0.68774    0.37127    0.27898    0 
H2       H      0.18774    0.87127    0.27898    0 
H2       H      0.90086    0.15891    0.27948    0 
H2       H      0.40086    0.65891    0.27948    0 
H2       H      0.86811    0.18636    0.2685     0 
H2       H      0.36811    0.68635    0.2685     0 
H2       H      0.90739    0.17575    0.23155    0 
H2       H      0.40739    0.67575    0.23155    0 
H2       H      0.87141    0.14826    0.23963    0 
H2       H      0.37141    0.64825    0.23963    0 
H2       H      0.08122    0.19836    0.23383    0 
H2       H      0.58123    0.69836    0.23383    0 
H2       H      0.1263     0.1955     0.25251    0 
H2       H      0.62631    0.6955     0.25251    0 
H2       H      0.1207     0.1524     0.25464    0 
H2       H      0.62071    0.65239    0.25464    0 
H2       H      0.11498    0.15828    0.2282     0 
H2       H      0.61499    0.65828    0.2282     0 
H2       H      0.6643     0.08797    0.1259     0 
H2       H      0.16429    0.58796    0.1259     0 
H2       H      0.66128    0.12405    0.12541    0 
H2       H      0.16127    0.62404    0.12541    0 
H2       H      0.75724    0.12635    0.12331    0 
H2       H      0.25723    0.62634    0.12331    0 
H2       H      0.74088    0.10851    0.14614    0 
H2       H      0.24088    0.6085     0.14614    0 
H2       H      0.75559    0.05394    0.03345    0 
H2       H      0.25558    0.55394    0.03345    0 
H2       H      0.73557    0.0398     0.05757    0 
H2       H      0.23556    0.53979    0.05757    0 
H2       H      0.81888    0.08385    0.05489    0 
H2       H      0.31887    0.58385    0.05489    0 
H2       H      0.83306    0.04885    0.05478    0 
H2       H      0.33306    0.54884    0.05478    0 
H2       H      0.46475    0.03419    0.38821    0 
H2       H      0.96476    0.53419    0.38821    0 
H2       H      0.51016    0.05878    0.38812    0 
H2       H      0.01015    0.55877    0.38812    0 
H2       H      0.46475    0.36753    0.05489    0 
H2       H      0.96476    0.86753    0.05489    0 
H2       H      0.5102     0.39212    0.05478    0 
H2       H      0.01019    0.89211    0.05478    0 
H2       H      0.5413     0.35083    0.03345    0 
H2       H      0.04129    0.85082    0.03345    0 
H2       H      0.57252    0.34788    0.05757    0 
H2       H      0.07252    0.84787    0.05757    0 
H2       H      0.43188    0.31545    0.12331    0 
H2       H      0.93189    0.81545    0.12331    0 
H2       H      0.46681    0.31617    0.14614    0 
H2       H      0.96682    0.81617    0.14614    0 
H2       H      0.25973    0.10907    0.14614    0 
H2       H      0.75974    0.60906    0.14614    0 
H2       H      0.24201    0.12598    0.12308    0 
H2       H      0.74201    0.62597    0.12308    0 
H2       H      0.33874    0.12405    0.12541    0 
H2       H      0.83874    0.62404    0.12541    0 
H2       H      0.18029    0.08395    0.05542    0 
H2       H      0.68029    0.58394    0.05542    0 
H2       H      0.33596    0.08795    0.12574    0 
H2       H      0.83596    0.58794    0.12574    0 
H2       H      0.16695    0.04885    0.05478    0 
H2       H      0.66696    0.54884    0.05478    0 
H2       H      0.26167    0.03863    0.05706    0 
H2       H      0.76167    0.53863    0.05706    0 
H2       H      0.24668    0.05554    0.0333     0 
H2       H      0.74669    0.55554    0.0333     0 
H2       H      0.15434    0.13902    0.60248    0 
H2       H      0.65435    0.63902    0.60248    0 
H2       H      0.2827     0.03249    0.5649     0 
H2       H      0.7827     0.53249    0.5649     0 
H2       H      0.34188    0.02824    0.57295    0 
H2       H      0.84188    0.52823    0.57295    0 
H2       H      0.21308    0.13716    0.61233    0 
H2       H      0.71309    0.63716    0.61233    0 
H2       H      0.31122    0.03763    0.61282    0 
H2       H      0.81123    0.53763    0.61282    0 
H2       H      0.2864     0.00754    0.60182    0 
H2       H      0.78641    0.50753    0.60182    0 
H2       H      0.15434    0.47236    0.26913    0 
H2       H      0.65435    0.97236    0.26913    0 
H2       H      0.21308    0.4705     0.27898    0 
H2       H      0.71309    0.9705     0.27898    0 
H2       H      0.2132     0.49018    0.23971    0 
H2       H      0.71321    0.99018    0.23971    0 
H2       H      0.1902     0.45848    0.23148    0 
H2       H      0.6902     0.95847    0.23148    0 
H2       H      0.2827     0.36581    0.23155    0 
H2       H      0.7827     0.8658     0.23155    0 
H2       H      0.34188    0.36158    0.23963    0 
H2       H      0.84188    0.86157    0.23963    0 
H2       H      0.31122    0.37097    0.27948    0 
H2       H      0.81123    0.87097    0.27948    0 
H2       H      0.2864     0.34087    0.2685     0 
H2       H      0.78641    0.84087    0.2685     0 
H2       H      0.20655    0.242      0.47946    0 
H2       H      0.70656    0.74199    0.47946    0 
H2       H      0.19004    0.22469    0.45643    0 
H2       H      0.69004    0.72469    0.45643    0 
H2       H      0.20007    0.29066    0.45907    0 
H2       H      0.70007    0.79065    0.45907    0 
H2       H      0.14455    0.274      0.45873    0 
H2       H      0.64456    0.774      0.45873    0 
H2       H      0.31891    0.25051    0.38821    0 
H2       H      0.81892    0.7505     0.38821    0 
H2       H      0.33306    0.21553    0.38812    0 
H2       H      0.83306    0.71552    0.38812    0 
H2       H      0.25558    0.2206     0.3668     0 
H2       H      0.75559    0.72059    0.3668     0 
H2       H      0.23556    0.20648    0.39089    0 
H2       H      0.73557    0.70647    0.39089    0 
H2       H      0.0359     0.45482    0.45925    0 
H2       H      0.5359     0.95482    0.45925    0 
H2       H      0.79982    0.29054    0.45925    0 
H2       H      0.29982    0.79054    0.45925    0 
H2       H      0.85546    0.274      0.45873    0 
H2       H      0.35546    0.774      0.45873    0 
H2       H      0.98333    0.43529    0.45873    0 
H2       H      0.48333    0.93528    0.45873    0 
H2       H      0.71635    0.21529    0.38821    0 
H2       H      0.21634    0.71529    0.38821    0 
H2       H      0.65676    0.22571    0.38812    0 
H2       H      0.15676    0.72571    0.38812    0 
H2       H      0.7404     0.25912    0.3739     0 
H2       H      0.24039    0.75911    0.3739     0 
H2       H      0.68086    0.27012    0.3739     0 
H2       H      0.18085    0.77011    0.3739     0 
H2       H      0.79124    0.22739    0.45043    0 
H2       H      0.29124    0.72738    0.45043    0 
H2       H      0.81235    0.23444    0.4756     0 
H2       H      0.31235    0.73443    0.4756     0 
H2       H      0.08428    0.51386    0.9097     0 
H2       H      0.58429    0.01385    0.9097     0 
H2       H      0.11921    0.48978    0.89623    0 
H2       H      0.61922    0.98978    0.89623    0 
H2       H      0.61188    0.00267    0.94946    0 
H2       H      0.11188    0.50267    0.94946    0 
H2       H      0.6282     0.01807    0.92579    0 
H2       H      0.12819    0.51807    0.92579    0 
H2       H      0.36859    0.02019    0.93363    0 
H2       H      0.86859    0.52018    0.93363    0 
H2       H      0.39844    0.99419    0.94736    0 
H2       H      0.89845    0.49418    0.94736    0 
H2       H      0.80196    0.19273    0.94946    0 
H2       H      0.30195    0.69273    0.94946    0 
H2       H      0.78697    0.17685    0.92579    0 
H2       H      0.28697    0.67684    0.92579    0 
H2       H      0.96754    0.48274    0.47948    0 
H2       H      0.46753    0.98273    0.47948    0 
H2       H      0.93148    0.48167    0.45717    0 
H2       H      0.43148    0.98166    0.45717    0 
H2       H      0.5185     0.00023    0.3739     0 
H2       H      0.01849    0.50023    0.3739     0 
H2       H      0.56475    0.02452    0.3739     0 
H2       H      0.06474    0.52451    0.3739     0 
H2       H      0.69004    0.30461    0.94946    0 
H2       H      0.19004    0.80461    0.94946    0 
H2       H      0.65878    0.30508    0.92579    0 
H2       H      0.15877    0.80507    0.92579    0 
H2       H      0.8379     0.19487    0.90194    0 
H2       H      0.33789    0.69487    0.90194    0 
H2       H      0.71123    0.32152    0.90194    0 
H2       H      0.21123    0.82152    0.90194    0 
H2       H      0.68799    0.28803    0.90194    0 
H2       H      0.18798    0.78802    0.90194    0 
C2       C      0.14403    0.28533    0.0481     0 
C2       C      0.64403    0.78532    0.0481     0 
H2       H      0.77601    0.19997    0.90194    0 
H2       H      0.27601    0.69996    0.90194    0 
C4       C      0.22827    0.07611    0.27419    0 
C4       C      0.72827    0.5761     0.27419    0 
C3       C      0.14205    0.04733    0.25334    0 
C3       C      0.64206    0.54733    0.25334    0 
C1       C      0.89885    0.0337     0.29162    0 
C1       C      0.39884    0.5337     0.29162    0 
C4       C      0.73226    0.08925    0.21342    0 
C4       C      0.23226    0.58924    0.21342    0 
C5       C      0.73206    0.08932    0.23559    0 
C5       C      0.23206    0.58931    0.23559    0 
C4       C      0.69105    0.10299    0.24625    0 
C4       C      0.19104    0.60299    0.24625    0 
C1       C      0.60113    0.46629    0.70837    0 
C1       C      0.10112    0.96629    0.70837    0 
C4       C      0.7717     0.07611    0.27419    0 
C4       C      0.2717     0.5761     0.27419    0 
C1       C      0.50001    0.23723    0.19456    0 
C1       C      0          0.73722    0.19456    0 
O2       O      0.3932     0.17266    0.1307     0 
O2       O      0.89321    0.67265    0.1307     0 
C1       C      0.50001    0.43256    0.29162    0 
C1       C      0          0.93256    0.29162    0 
O2       O      0.06188    0.28145    0.0261     0 
O2       O      0.56189    0.78144    0.0261     0 
C1       C      0.39417    0.1314     0.19456    0 
C1       C      0.89418    0.63139    0.19456    0 
C4       C      0.50001    0.32152    0.21342    0 
C4       C      0          0.82152    0.21342    0 
O2       O      0.43087    0.14363    0.2043     0 
O2       O      0.93088    0.64363    0.2043     0 
C5       C      0.77497    0.07501    0.25018    0 
C5       C      0.27496    0.57501    0.25018    0 
C4       C      0.81779    0.06073    0.2395     0 
C4       C      0.31779    0.56073    0.2395     0 
C6       C      0.81916    0.06029    0.21319    0 
C6       C      0.31916    0.56029    0.21319    0 
C5       C      0.50001    0.32136    0.23559    0 
C5       C      0          0.82135    0.23559    0 
H1       H      0.69395    0.10202    0.18326    0 
H1       H      0.19394    0.60201    0.18326    0 
C2       C      0.65124    0.11625    0.20913    0 
C2       C      0.15124    0.61625    0.20913    0 
H1       H      0.62006    0.12665    0.24091    0 
H1       H      0.12006    0.62665    0.24091    0 
C3       C      0.69149    0.10283    0.1996     0 
C3       C      0.19149    0.60283    0.1996     0 
C5       C      0.225      0.07501    0.25018    0 
C5       C      0.72501    0.57501    0.25018    0 
C3       C      0.64875    0.11709    0.23325    0 
C3       C      0.14874    0.61709    0.23325    0 
O2       O      0.38712    0.12905    0.17312    0 
O2       O      0.88713    0.62904    0.17312    0 
C4       C      0.50001    0.29403    0.24625    0 
C4       C      0          0.79402    0.24625    0 
C5       C      0.77094    0.25698    0.91329    0 
C5       C      0.27093    0.75697    0.91329    0 
C6       C      0.69181    0.10274    0.27292    0 
C6       C      0.19181    0.60273    0.27292    0 
C6       C      0.74753    0.10974    0.28334    0 
C6       C      0.24753    0.60974    0.28334    0 
C4       C      0.18222    0.06073    0.2395     0 
C4       C      0.68223    0.56073    0.2395     0 
H1       H      0.81284    0.06238    0.30343    0 
H1       H      0.31283    0.56238    0.30343    0 
C3       C      0.81405    0.06199    0.28706    0 
C3       C      0.31404    0.56198    0.28706    0 
C2       C      0.85635    0.04787    0.27631    0 
C2       C      0.35634    0.54786    0.27631    0 
O2       O      0.10604    0.03533    0.3138     0 
O2       O      0.60604    0.53533    0.3138     0 
C4       C      0.50001    0.34781    0.27419    0 
C4       C      0          0.8478     0.27419    0 
H1       H      0.88693    0.0377     0.24594    0 
H1       H      0.38692    0.5377     0.24594    0 
C3       C      0.85796    0.04733    0.25334    0 
C3       C      0.35795    0.54733    0.25334    0 
C5       C      0.50001    0.34999    0.25018    0 
C5       C      0          0.84999    0.25018    0 
O2       O      0.5444     0.11028    0.1307     0 
O2       O      0.0444     0.61027    0.1307     0 
O2       O      0.06228    0.02077    0.28128    0 
O2       O      0.56229    0.52077    0.28128    0 
O2       O      0.04689    0.39023    0.0261     0 
O2       O      0.5469     0.89023    0.0261     0 
O2       O      0.56914    0.14363    0.2043     0 
O2       O      0.06913    0.64363    0.2043     0 
O2       O      0.61285    0.12905    0.17312    0 
O2       O      0.11284    0.62904    0.17312    0 
O2       O      0.89398    0.03533    0.3138     0 
O2       O      0.39397    0.53533    0.3138     0 
O1       O      0.50001    0.16666    0.16285    0 
O1       O      0          0.66665    0.16285    0 
O1       O      0          0.33334    0.99559    0 
O1       O      0.50001    0.83333    0.99559    0 
O2       O      0.93769    0.02077    0.28128    0 
O2       O      0.43768    0.52077    0.28128    0 
Zn1      Zn     0.50001    0.16666    0.1987     0 
Zn1      Zn     0          0.66665    0.1987     0 
Zn1      Zn     0.43764    0.14589    0.15074    0 
Zn1      Zn     0.93765    0.64588    0.15074    0 
C4       C      0.50001    0.37853    0.2395     0 
C4       C      0          0.87853    0.2395     0 
Zn1      Zn     0          0.2904     0.00717    0 
Zn1      Zn     0.50001    0.7904     0.00717    0 
C3       C      0.81086    0.30191    0.89556    0 
C3       C      0.31086    0.80191    0.89556    0 
C6       C      0.50001    0.37944    0.21319    0 
C6       C      0          0.87943    0.21319    0 
H1       H      0.50001    0.29596    0.18326    0 
H1       H      0          0.79595    0.18326    0 
C1       C      0.60173    0.20057    0.12617    0 
C1       C      0.10173    0.70057    0.12617    0 
C3       C      0.50001    0.29433    0.1996     0 
C3       C      0          0.79433    0.1996     0 
C4       C      0.76776    0.41075    0.78658    0 
C4       C      0.26775    0.91074    0.78658    0 
Zn1      Zn     0.56233    0.14589    0.15074    0 
Zn1      Zn     0.06232    0.64588    0.15074    0 
Zn1      Zn     0.06438    0.35481    0.00717    0 
Zn1      Zn     0.56439    0.8548     0.00717    0 
C2       C      0.50001    0.26749    0.20913    0 
C2       C      0          0.76748    0.20913    0 
Zn1      Zn     0.50001    0.16666    0.0383     0 
Zn1      Zn     0          0.66665    0.0383     0 
C1       C      0.60584    0.1314     0.19456    0 
C1       C      0.10583    0.63139    0.19456    0 
Zn1      Zn     0          0.33334    0.96169    0 
Zn1      Zn     0.50001    0.83333    0.96169    0 


