data_MIL-100

_audit_creation_method RASPA-1.0
_audit_creation_date 2011-3-7
_audit_author_name 'Ozgur Yazaydin'

_cell_length_a    72.9057
_cell_length_b    72.9057
_cell_length_c    72.9057
_cell_angle_alpha 90
_cell_angle_beta  90
_cell_angle_gamma 90
_cell_volume      387511

_symmetry_cell_setting          triclinic
_symmetry_space_group_name_Hall 'P 1'
_symmetry_space_group_name_H-M  'P 1'
_symmetry_Int_Tables_number     1

_symmetry_equiv_pos_as_xyz 'x,y,z'

loop_
_atom_site_label
_atom_site_type_symbol
_atom_site_fract_x
_atom_site_fract_y
_atom_site_fract_z
_atom_site_charge
Cr1      Cr     0.7274       0.0547996    0.453399     1.859 
Cr1      Cr     0.227401     0.5548       0.453399     1.859 
Cr1      Cr     0.227401     0.0547996    0.9534       1.859 
Cr1      Cr     0.7274       0.5548       0.9534       1.859 
Cr1      Cr     0.630301     0.0135998    0.339999     1.859 
Cr1      Cr     0.1303       0.5136       0.339999     1.859 
Cr1      Cr     0.1303       0.0135998    0.84         1.859 
Cr1      Cr     0.630301     0.5136       0.84         1.859 
O2       O      0.182901     0.0957003    0.0437003   -0.731 
O2       O      0.6829       0.5957       0.0437003   -0.731 
O2       O      0.6829       0.0957003    0.5437      -0.731 
O2       O      0.182901     0.5957       0.5437      -0.731 
O2       O      0.1644       0.1153       0.0650004   -0.731 
O2       O      0.664399     0.6153       0.0650004   -0.731 
O2       O      0.664399     0.1153       0.565       -0.731 
O2       O      0.1644       0.6153       0.565       -0.731 
O3       O      0.6235       0.0982996    0.4115      -0.587 
O3       O      0.123501     0.5983       0.4115      -0.587 
O3       O      0.123501     0.0982996    0.911499    -0.587 
O3       O      0.6235       0.5983       0.911499    -0.587 
O3       O      0.6001       0.1284       0.3487      -0.587 
O3       O      0.100101     0.628399     0.3487      -0.587 
O3       O      0.100101     0.1284       0.8487      -0.587 
O3       O      0.6001       0.628399     0.8487      -0.587 
O3       O      0.6154       0.0904003    0.3839      -0.587 
O3       O      0.1154       0.5904       0.3839      -0.587 
O3       O      0.1154       0.0904003    0.883899    -0.587 
O3       O      0.6154       0.5904       0.883899    -0.587 
O2       O      0.6991       0.0764001    0.4823      -0.731 
O2       O      0.1991       0.576399     0.4823      -0.731 
O2       O      0.1991       0.0764001    0.9823      -0.731 
O2       O      0.6991       0.576399     0.9823      -0.731 
O2       O      0.6609       0.0613999    0.448099    -0.731 
O2       O      0.1609       0.561401     0.448099    -0.731 
O2       O      0.1609       0.0613999    0.9481      -0.731 
O2       O      0.6609       0.561401     0.9481      -0.731 
O2       O      0.728001     0.0724004    0.473401    -0.731 
O2       O      0.228        0.5724       0.473401    -0.731 
O2       O      0.228        0.0724004    0.9734      -0.731 
O2       O      0.728001     0.5724       0.9734      -0.731 
O2       O      0.7158       0.472301     0.0121006   -0.731 
O2       O      0.215799     0.9723       0.0121006   -0.731 
O2       O      0.215799     0.472301     0.5121      -0.731 
O2       O      0.7158       0.9723       0.5121      -0.731 
O2       O      0.7253       0.0461994    0.4302      -0.731 
O2       O      0.225301     0.5462       0.4302      -0.731 
O2       O      0.225301     0.0461994    0.9302      -0.731 
O2       O      0.7253       0.5462       0.9302      -0.731 
O3       O      0.673901     0.0346996    0.440501    -0.587 
O3       O      0.1739       0.5347       0.440501    -0.587 
O3       O      0.1739       0.0346996    0.9405      -0.587 
O3       O      0.673901     0.5347       0.9405      -0.587 
O3       O      0.158401     0.4987       0.3033      -0.587 
O3       O      0.6584       0.9987       0.3033      -0.587 
O3       O      0.6584       0.4987       0.803301    -0.587 
O3       O      0.158401     0.9987       0.803301    -0.587 
O2       O      0.5274       0.1698       0.3203      -0.731 
O2       O      0.0273998    0.669799     0.3203      -0.731 
O2       O      0.0273998    0.1698       0.820299    -0.731 
O2       O      0.5274       0.669799     0.820299    -0.731 
O2       O      0.6312       0.00990046   0.313399    -0.731 
O2       O      0.1312       0.5099       0.313399    -0.731 
O2       O      0.1312       0.00990046   0.8134      -0.731 
O2       O      0.6312       0.5099       0.8134      -0.731 
O2       O      0.538199     0.1407       0.329201    -0.731 
O2       O      0.0382       0.6407       0.329201    -0.731 
O2       O      0.0382       0.1407       0.8292      -0.731 
O2       O      0.538199     0.6407       0.8292      -0.731 
O2       O      0.631599     0.0249994    0.3634      -0.731 
O2       O      0.1316       0.525        0.3634      -0.731 
O2       O      0.1316       0.0249994    0.8634      -0.731 
O2       O      0.631599     0.525        0.8634      -0.731 
O2       O      0.648499     0.00680057   0.3816      -0.731 
O2       O      0.1485       0.5068       0.3816      -0.731 
O2       O      0.1485       0.00680057   0.8816      -0.731 
O2       O      0.648499     0.5068       0.8816      -0.731 
C3       C      0.575        0.151101     0.3317       0.11  
C3       C      0.0749996    0.6511       0.3317       0.11  
C3       C      0.0749996    0.151101     0.8317       0.11  
C3       C      0.575        0.6511       0.8317       0.11  
C2       C      0.561599     0.1644       0.320899    -0.274 
C2       C      0.0616001    0.664399     0.320899    -0.274 
C2       C      0.0616001    0.1644       0.8209      -0.274 
C2       C      0.561599     0.664399     0.8209      -0.274 
C1       C      0.541499     0.1577       0.3221       0.848 
C1       C      0.0415002    0.6577       0.3221       0.848 
C1       C      0.0415002    0.1577       0.8221       0.848 
C1       C      0.541499     0.6577       0.8221       0.848 
C3       C      0.2092       0.0899998    0.0161003    0.11  
C3       C      0.7092       0.590001     0.0161003    0.11  
C3       C      0.7092       0.0899998    0.5161       0.11  
C3       C      0.2092       0.590001     0.5161       0.11  
C2       C      0.2225       0.0865995    0.00260062  -0.274 
C2       C      0.7225       0.5866       0.00260062  -0.274 
C2       C      0.7225       0.0865995    0.5026      -0.274 
C2       C      0.2225       0.5866       0.5026      -0.274 
C1       C      0.716201     0.0776002    0.486299     0.848 
C1       C      0.2162       0.5776       0.486299     0.848 
C1       C      0.2162       0.0776002    0.9863       0.848 
C1       C      0.716201     0.5776       0.9863       0.848 
C2       C      0.6481       0.0469003    0.422599    -0.274 
C2       C      0.1481       0.5469       0.422599    -0.274 
C2       C      0.1481       0.0469003    0.9226      -0.274 
C2       C      0.6481       0.5469       0.9226      -0.274 
C3       C      0.6449       0.0311004    0.4115       0.11  
C3       C      0.1449       0.5311       0.4115       0.11  
C3       C      0.1449       0.0311004    0.911499     0.11  
C3       C      0.6449       0.5311       0.911499     0.11  
C2       C      0.6361       0.0344006    0.3934      -0.274 
C2       C      0.1361       0.5344       0.3934      -0.274 
C2       C      0.1361       0.0344006    0.893401    -0.274 
C2       C      0.6361       0.5344       0.893401    -0.274 
C3       C      0.6298       0.0528998    0.3884       0.11  
C3       C      0.129801     0.552901     0.3884       0.11  
C3       C      0.129801     0.0528998    0.8884       0.11  
C3       C      0.6298       0.552901     0.8884       0.11  
C2       C      0.6301       0.0674995    0.4022      -0.274 
C2       C      0.1301       0.5675       0.4022      -0.274 
C2       C      0.1301       0.0674995    0.9022      -0.274 
C2       C      0.6301       0.5675       0.9022      -0.274 
C3       C      0.6362       0.0627002    0.4203       0.11  
C3       C      0.136201     0.562699     0.4203       0.11  
C3       C      0.136201     0.0627002    0.9203       0.11  
C3       C      0.6362       0.562699     0.9203       0.11  
C1       C      0.622999     0.0863005    0.3987       0.848 
C1       C      0.123        0.5863       0.3987       0.848 
C1       C      0.123        0.0863005    0.898701     0.848 
C1       C      0.622999     0.5863       0.898701     0.848 
C1       C      0.6392       0.0217006    0.3785       0.848 
C1       C      0.1392       0.5217       0.3785       0.848 
C1       C      0.1392       0.0217006    0.878501     0.848 
C1       C      0.6392       0.5217       0.878501     0.848 
C1       C      0.6614       0.0475998    0.437301     0.848 
C1       C      0.1614       0.547601     0.437301     0.848 
C1       C      0.1614       0.0475998    0.9373       0.848 
C1       C      0.6614       0.547601     0.9373       0.848 
C2       C      0.710901     0.0153006    0.3712      -0.274 
C2       C      0.2109       0.5153       0.3712      -0.274 
C2       C      0.2109       0.0153006    0.871199    -0.274 
C2       C      0.710901     0.5153       0.871199    -0.274 
C3       C      0.7093       0.0175994    0.3934       0.11  
C3       C      0.209301     0.5176       0.3934       0.11  
C3       C      0.209301     0.0175994    0.893401     0.11  
C3       C      0.7093       0.5176       0.893401     0.11  
C1       C      0.1396       0.4995       0.3019       0.848 
C1       C      0.6396       0.999499     0.3019       0.848 
C1       C      0.6396       0.4995       0.8019       0.848 
C1       C      0.1396       0.999499     0.8019       0.848 
H1       H      0.679432     0.117892     0.431991     0.1   
H1       H      0.179433     0.617893     0.431991     0.1   
H1       H      0.179433     0.117892     0.931992     0.1   
H1       H      0.679432     0.617893     0.931992     0.1   
H1       H      0.733061     0.100955     0.416675     0.1   
H1       H      0.233061     0.600954     0.416675     0.1   
H1       H      0.233061     0.100955     0.916676     0.1   
H1       H      0.733061     0.600954     0.916676     0.1   
H1       H      0.104484     0.0619677    0.103823     0.1   
H1       H      0.604484     0.561968     0.103823     0.1   
H1       H      0.604484     0.0619677    0.603824     0.1   
H1       H      0.104484     0.561968     0.603824     0.1   
H1       H      0.613287     0.177804     0.332232     0.1   
H1       H      0.113286     0.677804     0.332232     0.1   
H1       H      0.113286     0.177804     0.832231     0.1   
H1       H      0.613287     0.677804     0.832231     0.1   
H1       H      0.625261     0.194221     0.373888     0.1   
H1       H      0.12526      0.69422      0.373888     0.1   
H1       H      0.12526      0.194221     0.873888     0.1   
H1       H      0.625261     0.69422      0.873888     0.1   
H1       H      0.194082     0.0907295    0.0121733    0.1   
H1       H      0.694082     0.59073      0.0121733    0.1   
H1       H      0.694082     0.0907295    0.512173     0.1   
H1       H      0.194082     0.59073      0.512173     0.1   
H1       H      0.699147     0.0100719    0.40084      0.1   
H1       H      0.199148     0.510071     0.40084      0.1   
H1       H      0.199148     0.0100719    0.900839     0.1   
H1       H      0.699147     0.510071     0.900839     0.1   
Cr1      Cr     0.5226       0.1952       0.453399     1.859 
Cr1      Cr     0.0226004    0.695199     0.453399     1.859 
Cr1      Cr     0.0226004    0.1952       0.9534       1.859 
Cr1      Cr     0.5226       0.695199     0.9534       1.859 
Cr1      Cr     0.619701     0.2364       0.339999     1.859 
Cr1      Cr     0.1197       0.736401     0.339999     1.859 
Cr1      Cr     0.1197       0.2364       0.84         1.859 
Cr1      Cr     0.619701     0.736401     0.84         1.859 
O2       O      0.0671004    0.154299     0.0437003   -0.731 
O2       O      0.5671       0.6543       0.0437003   -0.731 
O2       O      0.5671       0.154299     0.5437      -0.731 
O2       O      0.0671004    0.6543       0.5437      -0.731 
O2       O      0.0855996    0.1347       0.0650004   -0.731 
O2       O      0.5856       0.634699     0.0650004   -0.731 
O2       O      0.5856       0.1347       0.565       -0.731 
O2       O      0.0855996    0.634699     0.565       -0.731 
O3       O      0.6265       0.1517       0.4115      -0.587 
O3       O      0.1265       0.651699     0.4115      -0.587 
O3       O      0.1265       0.1517       0.911499    -0.587 
O3       O      0.6265       0.651699     0.911499    -0.587 
O2       O      0.6499       0.1216       0.3487      -0.731 
O2       O      0.1499       0.6216       0.3487      -0.731 
O2       O      0.1499       0.1216       0.8487      -0.731 
O2       O      0.6499       0.6216       0.8487      -0.731 
O2       O      0.634601     0.159599     0.3839      -0.731 
O2       O      0.1346       0.6596       0.3839      -0.731 
O2       O      0.1346       0.159599     0.883899    -0.731 
O2       O      0.634601     0.6596       0.883899    -0.731 
O3       O      0.550899     0.1736       0.4823      -0.587 
O3       O      0.0509       0.6736       0.4823      -0.587 
O3       O      0.0509       0.1736       0.9823      -0.587 
O3       O      0.550899     0.6736       0.9823      -0.587 
O3       O      0.589099     0.1886       0.448099    -0.587 
O3       O      0.0891       0.6886       0.448099    -0.587 
O3       O      0.0891       0.1886       0.9481      -0.587 
O3       O      0.589099     0.6886       0.9481      -0.587 
O2       O      0.522        0.177601     0.473401    -0.731 
O2       O      0.0219997    0.6776       0.473401    -0.731 
O2       O      0.0219997    0.177601     0.9734      -0.731 
O2       O      0.522        0.6776       0.9734      -0.731 
O3       O      0.0342003    0.2777       0.0121006   -0.587 
O3       O      0.5342       0.777701     0.0121006   -0.587 
O3       O      0.5342       0.2777       0.5121      -0.587 
O3       O      0.0342003    0.777701     0.5121      -0.587 
O2       O      0.5247       0.2038       0.4302      -0.731 
O2       O      0.0247004    0.7038       0.4302      -0.731 
O2       O      0.0247004    0.2038       0.9302      -0.731 
O2       O      0.5247       0.7038       0.9302      -0.731 
O2       O      0.5761       0.2153       0.440501    -0.731 
O2       O      0.0760997    0.715299     0.440501    -0.731 
O2       O      0.0760997    0.2153       0.9405      -0.731 
O2       O      0.5761       0.715299     0.9405      -0.731 
O3       O      0.5916       0.2513       0.3033      -0.587 
O3       O      0.0916005    0.751301     0.3033      -0.587 
O3       O      0.0916005    0.2513       0.803301    -0.587 
O3       O      0.5916       0.751301     0.803301    -0.587 
O2       O      0.722601     0.0801995    0.3203      -0.731 
O2       O      0.2226       0.5802       0.3203      -0.731 
O2       O      0.2226       0.0801995    0.820299    -0.731 
O2       O      0.722601     0.5802       0.820299    -0.731 
O2       O      0.618799     0.240101     0.313399    -0.731 
O2       O      0.1188       0.7401       0.313399    -0.731 
O2       O      0.1188       0.240101     0.8134      -0.731 
O2       O      0.618799     0.7401       0.8134      -0.731 
O3       O      0.7118       0.1093       0.329201    -0.587 
O3       O      0.2118       0.609299     0.329201    -0.587 
O3       O      0.2118       0.1093       0.8292      -0.587 
O3       O      0.7118       0.609299     0.8292      -0.587 
O2       O      0.6184       0.225        0.3634      -0.731 
O2       O      0.1184       0.725        0.3634      -0.731 
O2       O      0.1184       0.225        0.8634      -0.731 
O2       O      0.6184       0.725        0.8634      -0.731 
O2       O      0.6015       0.2432       0.3816      -0.731 
O2       O      0.1015       0.7432       0.3816      -0.731 
O2       O      0.1015       0.2432       0.8816      -0.731 
O2       O      0.6015       0.7432       0.8816      -0.731 
C3       C      0.674999     0.0989004    0.3317       0.11  
C3       C      0.175        0.5989       0.3317       0.11  
C3       C      0.175        0.0989004    0.8317       0.11  
C3       C      0.674999     0.5989       0.8317       0.11  
C2       C      0.6884       0.0855996    0.320899    -0.274 
C2       C      0.1884       0.5856       0.320899    -0.274 
C2       C      0.1884       0.0855996    0.8209      -0.274 
C2       C      0.6884       0.5856       0.8209      -0.274 
C1       C      0.7085       0.0923001    0.3221       0.848 
C1       C      0.208499     0.592299     0.3221       0.848 
C1       C      0.208499     0.0923001    0.8221       0.848 
C1       C      0.7085       0.592299     0.8221       0.848 
C3       C      0.0408007    0.16         0.0161003    0.11  
C3       C      0.5408       0.660001     0.0161003    0.11  
C3       C      0.5408       0.16         0.5161       0.11  
C3       C      0.0408007    0.660001     0.5161       0.11  
C2       C      0.0274999    0.1634       0.00260062  -0.274 
C2       C      0.527501     0.663399     0.00260062  -0.274 
C2       C      0.527501     0.1634       0.5026      -0.274 
C2       C      0.0274999    0.663399     0.5026      -0.274 
C1       C      0.533801     0.172399     0.486299     0.848 
C1       C      0.0337998    0.6724       0.486299     0.848 
C1       C      0.0337998    0.172399     0.9863       0.848 
C1       C      0.533801     0.6724       0.9863       0.848 
C2       C      0.601899     0.203099     0.422599    -0.274 
C2       C      0.1019       0.7031       0.422599    -0.274 
C2       C      0.1019       0.203099     0.9226      -0.274 
C2       C      0.601899     0.7031       0.9226      -0.274 
C3       C      0.605099     0.218901     0.4115       0.11  
C3       C      0.1051       0.7189       0.4115       0.11  
C3       C      0.1051       0.218901     0.911499     0.11  
C3       C      0.605099     0.7189       0.911499     0.11  
C2       C      0.6139       0.2156       0.3934      -0.274 
C2       C      0.113901     0.7156       0.3934      -0.274 
C2       C      0.113901     0.2156       0.893401    -0.274 
C2       C      0.6139       0.7156       0.893401    -0.274 
C3       C      0.6202       0.1971       0.3884       0.11  
C3       C      0.1202       0.697101     0.3884       0.11  
C3       C      0.1202       0.1971       0.8884       0.11  
C3       C      0.6202       0.697101     0.8884       0.11  
C2       C      0.619899     0.1825       0.4022      -0.274 
C2       C      0.1199       0.682499     0.4022      -0.274 
C2       C      0.1199       0.1825       0.9022      -0.274 
C2       C      0.619899     0.682499     0.9022      -0.274 
C3       C      0.6138       0.187299     0.4203       0.11  
C3       C      0.1138       0.6873       0.4203       0.11  
C3       C      0.1138       0.187299     0.9203       0.11  
C3       C      0.6138       0.6873       0.9203       0.11  
C1       C      0.627        0.163701     0.3987       0.848 
C1       C      0.127        0.6637       0.3987       0.848 
C1       C      0.127        0.163701     0.898701     0.848 
C1       C      0.627        0.6637       0.898701     0.848 
C1       C      0.6108       0.2283       0.3785       0.848 
C1       C      0.110801     0.7283       0.3785       0.848 
C1       C      0.110801     0.2283       0.878501     0.848 
C1       C      0.6108       0.7283       0.878501     0.848 
C1       C      0.5886       0.2024       0.437301     0.848 
C1       C      0.0885994    0.7024       0.437301     0.848 
C1       C      0.0885994    0.2024       0.9373       0.848 
C1       C      0.5886       0.7024       0.9373       0.848 
C2       C      0.539101     0.2347       0.3712      -0.274 
C2       C      0.0390998    0.7347       0.3712      -0.274 
C2       C      0.0390998    0.2347       0.871199    -0.274 
C2       C      0.539101     0.7347       0.871199    -0.274 
C3       C      0.5407       0.2324       0.3934       0.11  
C3       C      0.0407005    0.7324       0.3934       0.11  
C3       C      0.0407005    0.2324       0.893401     0.11  
C3       C      0.5407       0.7324       0.893401     0.11  
C1       C      0.610399     0.2505       0.3019       0.848 
C1       C      0.1104       0.7505       0.3019       0.848 
C1       C      0.1104       0.2505       0.8019       0.848 
C1       C      0.610399     0.7505       0.8019       0.848 
H1       H      0.570567     0.132108     0.431991     0.1   
H1       H      0.0705665    0.632108     0.431991     0.1   
H1       H      0.0705665    0.132108     0.931992     0.1   
H1       H      0.570567     0.632108     0.931992     0.1   
H1       H      0.516939     0.149046     0.416675     0.1   
H1       H      0.0169397    0.649045     0.416675     0.1   
H1       H      0.0169397    0.149046     0.916676     0.1   
H1       H      0.516939     0.649045     0.916676     0.1   
H1       H      0.636714     0.072196     0.332232     0.1   
H1       H      0.136714     0.572197     0.332232     0.1   
H1       H      0.136714     0.072196     0.832231     0.1   
H1       H      0.636714     0.572197     0.832231     0.1   
H1       H      0.62474      0.0557803    0.373888     0.1   
H1       H      0.124739     0.55578      0.373888     0.1   
H1       H      0.124739     0.0557803    0.873888     0.1   
H1       H      0.62474      0.55578      0.873888     0.1   
H1       H      0.0559174    0.15927      0.0121733    0.1   
H1       H      0.555918     0.659271     0.0121733    0.1   
H1       H      0.555918     0.15927      0.512173     0.1   
H1       H      0.0559174    0.659271     0.512173     0.1   
H1       H      0.550853     0.239929     0.40084      0.1   
H1       H      0.050852     0.739928     0.40084      0.1   
H1       H      0.050852     0.239929     0.900839     0.1   
H1       H      0.550853     0.739928     0.900839     0.1   
Cr1      Cr     0.0226004    0.0547996    0.2966       1.859 
Cr1      Cr     0.5226       0.5548       0.2966       1.859 
Cr1      Cr     0.5226       0.0547996    0.7966       1.859 
Cr1      Cr     0.0226004    0.5548       0.7966       1.859 
Cr1      Cr     0.1197       0.0135998    0.409999     1.859 
Cr1      Cr     0.619701     0.5136       0.409999     1.859 
Cr1      Cr     0.619701     0.0135998    0.91         1.859 
Cr1      Cr     0.1197       0.5136       0.91         1.859 
O2       O      0.0671004    0.0957003    0.206299    -0.731 
O2       O      0.5671       0.5957       0.206299    -0.731 
O2       O      0.5671       0.0957003    0.7063      -0.731 
O2       O      0.0671004    0.5957       0.7063      -0.731 
O2       O      0.0855996    0.1153       0.185001    -0.731 
O2       O      0.5856       0.6153       0.185001    -0.731 
O2       O      0.5856       0.1153       0.685       -0.731 
O2       O      0.0855996    0.6153       0.685       -0.731 
O2       O      0.1265       0.0982996    0.3385      -0.731 
O2       O      0.6265       0.5983       0.3385      -0.731 
O2       O      0.6265       0.0982996    0.8385      -0.731 
O2       O      0.1265       0.5983       0.8385      -0.731 
O3       O      0.1499       0.1284       0.401301    -0.587 
O3       O      0.6499       0.628399     0.401301    -0.587 
O3       O      0.6499       0.1284       0.9013      -0.587 
O3       O      0.1499       0.628399     0.9013      -0.587 
O3       O      0.1346       0.0904003    0.3661      -0.587 
O3       O      0.634601     0.5904       0.3661      -0.587 
O3       O      0.634601     0.0904003    0.8661      -0.587 
O3       O      0.1346       0.5904       0.8661      -0.587 
O3       O      0.0509       0.0764001    0.267701    -0.587 
O3       O      0.550899     0.576399     0.267701    -0.587 
O3       O      0.550899     0.0764001    0.7677      -0.587 
O3       O      0.0509       0.576399     0.7677      -0.587 
O3       O      0.0891       0.0613999    0.3019      -0.587 
O3       O      0.589099     0.561401     0.3019      -0.587 
O3       O      0.589099     0.0613999    0.8019      -0.587 
O3       O      0.0891       0.561401     0.8019      -0.587 
O2       O      0.0219997    0.0724004    0.2766      -0.731 
O2       O      0.522        0.5724       0.2766      -0.731 
O2       O      0.522        0.0724004    0.7766      -0.731 
O2       O      0.0219997    0.5724       0.7766      -0.731 
O3       O      0.5342       0.472301     0.2379      -0.587 
O3       O      0.0342003    0.9723       0.2379      -0.587 
O3       O      0.0342003    0.472301     0.7379      -0.587 
O3       O      0.5342       0.9723       0.7379      -0.587 
O2       O      0.0247004    0.0461994    0.319799    -0.731 
O2       O      0.5247       0.5462       0.319799    -0.731 
O2       O      0.5247       0.0461994    0.8198      -0.731 
O2       O      0.0247004    0.5462       0.8198      -0.731 
O2       O      0.0760997    0.0346996    0.3095      -0.731 
O2       O      0.5761       0.5347       0.3095      -0.731 
O2       O      0.5761       0.0346996    0.8095      -0.731 
O2       O      0.0760997    0.5347       0.8095      -0.731 
O2       O      0.5916       0.4987       0.4467      -0.731 
O2       O      0.0916005    0.9987       0.4467      -0.731 
O2       O      0.0916005    0.4987       0.9467      -0.731 
O2       O      0.5916       0.9987       0.9467      -0.731 
O3       O      0.2226       0.1698       0.4297      -0.587 
O3       O      0.722601     0.669799     0.4297      -0.587 
O3       O      0.722601     0.1698       0.9297      -0.587 
O3       O      0.2226       0.669799     0.9297      -0.587 
O2       O      0.1188       0.00990046   0.4366      -0.731 
O2       O      0.618799     0.5099       0.4366      -0.731 
O2       O      0.618799     0.00990046   0.9366      -0.731 
O2       O      0.1188       0.5099       0.9366      -0.731 
O2       O      0.2118       0.1407       0.4208      -0.731 
O2       O      0.7118       0.6407       0.4208      -0.731 
O2       O      0.7118       0.1407       0.9208      -0.731 
O2       O      0.2118       0.6407       0.9208      -0.731 
O2       O      0.1184       0.0249994    0.386599    -0.731 
O2       O      0.6184       0.525        0.386599    -0.731 
O2       O      0.6184       0.0249994    0.8866      -0.731 
O2       O      0.1184       0.525        0.8866      -0.731 
O3       O      0.1015       0.00680057   0.368401    -0.587 
O3       O      0.6015       0.5068       0.368401    -0.587 
O3       O      0.6015       0.00680057   0.8684      -0.587 
O3       O      0.1015       0.5068       0.8684      -0.587 
C3       C      0.175        0.151101     0.418301     0.11  
C3       C      0.674999     0.6511       0.418301     0.11  
C3       C      0.674999     0.151101     0.9183       0.11  
C3       C      0.175        0.6511       0.9183       0.11  
C2       C      0.1884       0.1644       0.4291      -0.274 
C2       C      0.6884       0.664399     0.4291      -0.274 
C2       C      0.6884       0.1644       0.9291      -0.274 
C2       C      0.1884       0.664399     0.9291      -0.274 
C1       C      0.208499     0.1577       0.427901     0.848 
C1       C      0.7085       0.6577       0.427901     0.848 
C1       C      0.7085       0.1577       0.9279       0.848 
C1       C      0.208499     0.6577       0.9279       0.848 
C3       C      0.0408007    0.0899998    0.233899     0.11  
C3       C      0.5408       0.590001     0.233899     0.11  
C3       C      0.5408       0.0899998    0.7339       0.11  
C3       C      0.0408007    0.590001     0.7339       0.11  
C2       C      0.0274999    0.0865995    0.2474      -0.274 
C2       C      0.527501     0.5866       0.2474      -0.274 
C2       C      0.527501     0.0865995    0.7474      -0.274 
C2       C      0.0274999    0.5866       0.7474      -0.274 
C1       C      0.0337998    0.0776002    0.2637       0.848 
C1       C      0.533801     0.5776       0.2637       0.848 
C1       C      0.533801     0.0776002    0.7637       0.848 
C1       C      0.0337998    0.5776       0.7637       0.848 
C2       C      0.1019       0.0469003    0.3274      -0.274 
C2       C      0.601899     0.5469       0.3274      -0.274 
C2       C      0.601899     0.0469003    0.8274      -0.274 
C2       C      0.1019       0.5469       0.8274      -0.274 
C3       C      0.1051       0.0311004    0.3385       0.11  
C3       C      0.605099     0.5311       0.3385       0.11  
C3       C      0.605099     0.0311004    0.8385       0.11  
C3       C      0.1051       0.5311       0.8385       0.11  
C2       C      0.113901     0.0344006    0.3566      -0.274 
C2       C      0.6139       0.5344       0.3566      -0.274 
C2       C      0.6139       0.0344006    0.8566      -0.274 
C2       C      0.113901     0.5344       0.8566      -0.274 
C3       C      0.1202       0.0528998    0.3616       0.11  
C3       C      0.6202       0.552901     0.3616       0.11  
C3       C      0.6202       0.0528998    0.861601     0.11  
C3       C      0.1202       0.552901     0.861601     0.11  
C2       C      0.1199       0.0674995    0.3478      -0.274 
C2       C      0.619899     0.5675       0.3478      -0.274 
C2       C      0.619899     0.0674995    0.847801    -0.274 
C2       C      0.1199       0.5675       0.847801    -0.274 
C3       C      0.1138       0.0627002    0.3297       0.11  
C3       C      0.6138       0.562699     0.3297       0.11  
C3       C      0.6138       0.0627002    0.829701     0.11  
C3       C      0.1138       0.562699     0.829701     0.11  
C1       C      0.127        0.0863005    0.3513       0.848 
C1       C      0.627        0.5863       0.3513       0.848 
C1       C      0.627        0.0863005    0.8513       0.848 
C1       C      0.127        0.5863       0.8513       0.848 
C1       C      0.110801     0.0217006    0.3715       0.848 
C1       C      0.6108       0.5217       0.3715       0.848 
C1       C      0.6108       0.0217006    0.8715       0.848 
C1       C      0.110801     0.5217       0.8715       0.848 
C1       C      0.0885994    0.0475998    0.3127       0.848 
C1       C      0.5886       0.547601     0.3127       0.848 
C1       C      0.5886       0.0475998    0.812701     0.848 
C1       C      0.0885994    0.547601     0.812701     0.848 
C2       C      0.0390998    0.0153006    0.3788      -0.274 
C2       C      0.539101     0.5153       0.3788      -0.274 
C2       C      0.539101     0.0153006    0.8788      -0.274 
C2       C      0.0390998    0.5153       0.8788      -0.274 
C3       C      0.0407005    0.0175994    0.3566       0.11  
C3       C      0.5407       0.5176       0.3566       0.11  
C3       C      0.5407       0.0175994    0.8566       0.11  
C3       C      0.0407005    0.5176       0.8566       0.11  
C1       C      0.610399     0.4995       0.448099     0.848 
C1       C      0.1104       0.999499     0.448099     0.848 
C1       C      0.1104       0.4995       0.9481       0.848 
C1       C      0.610399     0.999499     0.9481       0.848 
H1       H      0.0705665    0.117892     0.318008     0.1   
H1       H      0.570567     0.617893     0.318008     0.1   
H1       H      0.570567     0.117892     0.818009     0.1   
H1       H      0.0705665    0.617893     0.818009     0.1   
H1       H      0.0169397    0.100955     0.333324     0.1   
H1       H      0.516939     0.600954     0.333324     0.1   
H1       H      0.516939     0.100955     0.833324     0.1   
H1       H      0.0169397    0.600954     0.833324     0.1   
H1       H      0.136714     0.177804     0.417768     0.1   
H1       H      0.636714     0.677804     0.417768     0.1   
H1       H      0.636714     0.177804     0.917769     0.1   
H1       H      0.136714     0.677804     0.917769     0.1   
H1       H      0.189989     0.189623     0.445187     0.1   
H1       H      0.689989     0.689624     0.445187     0.1   
H1       H      0.689989     0.189623     0.945188     0.1   
H1       H      0.189989     0.689624     0.945188     0.1   
H1       H      0.124739     0.194221     0.376112     0.1   
H1       H      0.62474      0.69422      0.376112     0.1   
H1       H      0.62474      0.194221     0.876113     0.1   
H1       H      0.124739     0.69422      0.876113     0.1   
H1       H      0.0559174    0.0907295    0.237828     0.1   
H1       H      0.555918     0.59073      0.237828     0.1   
H1       H      0.555918     0.0907295    0.737827     0.1   
H1       H      0.0559174    0.59073      0.737827     0.1   
H1       H      0.050852     0.0100719    0.349161     0.1   
H1       H      0.550853     0.510071     0.349161     0.1   
H1       H      0.550853     0.0100719    0.84916      0.1   
H1       H      0.050852     0.510071     0.84916      0.1   
Cr1      Cr     0.227401     0.1952       0.2966       1.859 
Cr1      Cr     0.7274       0.695199     0.2966       1.859 
Cr1      Cr     0.7274       0.1952       0.7966       1.859 
Cr1      Cr     0.227401     0.695199     0.7966       1.859 
Cr1      Cr     0.1303       0.2364       0.409999     1.859 
Cr1      Cr     0.630301     0.736401     0.409999     1.859 
Cr1      Cr     0.630301     0.2364       0.91         1.859 
Cr1      Cr     0.1303       0.736401     0.91         1.859 
O3       O      0.182901     0.154299     0.206299    -0.587 
O3       O      0.6829       0.6543       0.206299    -0.587 
O3       O      0.6829       0.154299     0.7063      -0.587 
O3       O      0.182901     0.6543       0.7063      -0.587 
O3       O      0.1644       0.1347       0.185001    -0.587 
O3       O      0.664399     0.634699     0.185001    -0.587 
O3       O      0.664399     0.1347       0.685       -0.587 
O3       O      0.1644       0.634699     0.685       -0.587 
O2       O      0.123501     0.1517       0.3385      -0.731 
O2       O      0.6235       0.651699     0.3385      -0.731 
O2       O      0.6235       0.1517       0.8385      -0.731 
O2       O      0.123501     0.651699     0.8385      -0.731 
O2       O      0.100101     0.1216       0.401301    -0.731 
O2       O      0.6001       0.6216       0.401301    -0.731 
O2       O      0.6001       0.1216       0.9013      -0.731 
O2       O      0.100101     0.6216       0.9013      -0.731 
O2       O      0.1154       0.159599     0.3661      -0.731 
O2       O      0.6154       0.6596       0.3661      -0.731 
O2       O      0.6154       0.159599     0.8661      -0.731 
O2       O      0.1154       0.6596       0.8661      -0.731 
O2       O      0.1991       0.1736       0.267701    -0.731 
O2       O      0.6991       0.6736       0.267701    -0.731 
O2       O      0.6991       0.1736       0.7677      -0.731 
O2       O      0.1991       0.6736       0.7677      -0.731 
O2       O      0.1609       0.1886       0.3019      -0.731 
O2       O      0.6609       0.6886       0.3019      -0.731 
O2       O      0.6609       0.1886       0.8019      -0.731 
O2       O      0.1609       0.6886       0.8019      -0.731 
O2       O      0.228        0.177601     0.2766      -0.731 
O2       O      0.728001     0.6776       0.2766      -0.731 
O2       O      0.728001     0.177601     0.7766      -0.731 
O2       O      0.228        0.6776       0.7766      -0.731 
O2       O      0.215799     0.2777       0.2379      -0.731 
O2       O      0.7158       0.777701     0.2379      -0.731 
O2       O      0.7158       0.2777       0.7379      -0.731 
O2       O      0.215799     0.777701     0.7379      -0.731 
O2       O      0.225301     0.2038       0.319799    -0.731 
O2       O      0.7253       0.7038       0.319799    -0.731 
O2       O      0.7253       0.2038       0.8198      -0.731 
O2       O      0.225301     0.7038       0.8198      -0.731 
O3       O      0.1739       0.2153       0.3095      -0.587 
O3       O      0.673901     0.715299     0.3095      -0.587 
O3       O      0.673901     0.2153       0.8095      -0.587 
O3       O      0.1739       0.715299     0.8095      -0.587 
O2       O      0.158401     0.2513       0.4467      -0.731 
O2       O      0.6584       0.751301     0.4467      -0.731 
O2       O      0.6584       0.2513       0.9467      -0.731 
O2       O      0.158401     0.751301     0.9467      -0.731 
O3       O      0.0273998    0.0801995    0.4297      -0.587 
O3       O      0.5274       0.5802       0.4297      -0.587 
O3       O      0.5274       0.0801995    0.9297      -0.587 
O3       O      0.0273998    0.5802       0.9297      -0.587 
O2       O      0.1312       0.240101     0.4366      -0.731 
O2       O      0.6312       0.7401       0.4366      -0.731 
O2       O      0.6312       0.240101     0.9366      -0.731 
O2       O      0.1312       0.7401       0.9366      -0.731 
O2       O      0.0382       0.1093       0.4208      -0.731 
O2       O      0.538199     0.609299     0.4208      -0.731 
O2       O      0.538199     0.1093       0.9208      -0.731 
O2       O      0.0382       0.609299     0.9208      -0.731 
O2       O      0.1316       0.225        0.386599    -0.731 
O2       O      0.631599     0.725        0.386599    -0.731 
O2       O      0.631599     0.225        0.8866      -0.731 
O2       O      0.1316       0.725        0.8866      -0.731 
O2       O      0.1485       0.2432       0.368401    -0.731 
O2       O      0.648499     0.7432       0.368401    -0.731 
O2       O      0.648499     0.2432       0.8684      -0.731 
O2       O      0.1485       0.7432       0.8684      -0.731 
C3       C      0.0749996    0.0989004    0.418301     0.11  
C3       C      0.575        0.5989       0.418301     0.11  
C3       C      0.575        0.0989004    0.9183       0.11  
C3       C      0.0749996    0.5989       0.9183       0.11  
C2       C      0.0616001    0.0855996    0.4291      -0.274 
C2       C      0.561599     0.5856       0.4291      -0.274 
C2       C      0.561599     0.0855996    0.9291      -0.274 
C2       C      0.0616001    0.5856       0.9291      -0.274 
C1       C      0.0415002    0.0923001    0.427901     0.848 
C1       C      0.541499     0.592299     0.427901     0.848 
C1       C      0.541499     0.0923001    0.9279       0.848 
C1       C      0.0415002    0.592299     0.9279       0.848 
C3       C      0.2092       0.16         0.233899     0.11  
C3       C      0.7092       0.660001     0.233899     0.11  
C3       C      0.7092       0.16         0.7339       0.11  
C3       C      0.2092       0.660001     0.7339       0.11  
C2       C      0.2225       0.1634       0.2474      -0.274 
C2       C      0.7225       0.663399     0.2474      -0.274 
C2       C      0.7225       0.1634       0.7474      -0.274 
C2       C      0.2225       0.663399     0.7474      -0.274 
C1       C      0.2162       0.172399     0.2637       0.848 
C1       C      0.716201     0.6724       0.2637       0.848 
C1       C      0.716201     0.172399     0.7637       0.848 
C1       C      0.2162       0.6724       0.7637       0.848 
C2       C      0.1481       0.203099     0.3274      -0.274 
C2       C      0.6481       0.7031       0.3274      -0.274 
C2       C      0.6481       0.203099     0.8274      -0.274 
C2       C      0.1481       0.7031       0.8274      -0.274 
C3       C      0.1449       0.218901     0.3385       0.11  
C3       C      0.6449       0.7189       0.3385       0.11  
C3       C      0.6449       0.218901     0.8385       0.11  
C3       C      0.1449       0.7189       0.8385       0.11  
C2       C      0.1361       0.2156       0.3566      -0.274 
C2       C      0.6361       0.7156       0.3566      -0.274 
C2       C      0.6361       0.2156       0.8566      -0.274 
C2       C      0.1361       0.7156       0.8566      -0.274 
C3       C      0.129801     0.1971       0.3616       0.11  
C3       C      0.6298       0.697101     0.3616       0.11  
C3       C      0.6298       0.1971       0.861601     0.11  
C3       C      0.129801     0.697101     0.861601     0.11  
C2       C      0.1301       0.1825       0.3478      -0.274 
C2       C      0.6301       0.682499     0.3478      -0.274 
C2       C      0.6301       0.1825       0.847801    -0.274 
C2       C      0.1301       0.682499     0.847801    -0.274 
C3       C      0.136201     0.187299     0.3297       0.11  
C3       C      0.6362       0.6873       0.3297       0.11  
C3       C      0.6362       0.187299     0.829701     0.11  
C3       C      0.136201     0.6873       0.829701     0.11  
C1       C      0.123        0.163701     0.3513       0.848 
C1       C      0.622999     0.6637       0.3513       0.848 
C1       C      0.622999     0.163701     0.8513       0.848 
C1       C      0.123        0.6637       0.8513       0.848 
C1       C      0.1392       0.2283       0.3715       0.848 
C1       C      0.6392       0.7283       0.3715       0.848 
C1       C      0.6392       0.2283       0.8715       0.848 
C1       C      0.1392       0.7283       0.8715       0.848 
C1       C      0.1614       0.2024       0.3127       0.848 
C1       C      0.6614       0.7024       0.3127       0.848 
C1       C      0.6614       0.2024       0.812701     0.848 
C1       C      0.1614       0.7024       0.812701     0.848 
C2       C      0.2109       0.2347       0.3788      -0.274 
C2       C      0.710901     0.7347       0.3788      -0.274 
C2       C      0.710901     0.2347       0.8788      -0.274 
C2       C      0.2109       0.7347       0.8788      -0.274 
C3       C      0.209301     0.2324       0.3566       0.11  
C3       C      0.7093       0.7324       0.3566       0.11  
C3       C      0.7093       0.2324       0.8566       0.11  
C3       C      0.209301     0.7324       0.8566       0.11  
C1       C      0.1396       0.2505       0.448099     0.848 
C1       C      0.6396       0.7505       0.448099     0.848 
C1       C      0.6396       0.2505       0.9481       0.848 
C1       C      0.1396       0.7505       0.9481       0.848 
H1       H      0.179433     0.132108     0.318008     0.1   
H1       H      0.679432     0.632108     0.318008     0.1   
H1       H      0.679432     0.132108     0.818009     0.1   
H1       H      0.179433     0.632108     0.818009     0.1   
H1       H      0.233061     0.149046     0.333324     0.1   
H1       H      0.733061     0.649045     0.333324     0.1   
H1       H      0.733061     0.149046     0.833324     0.1   
H1       H      0.233061     0.649045     0.833324     0.1   
H1       H      0.104484     0.188032     0.146176     0.1   
H1       H      0.604484     0.688031     0.146176     0.1   
H1       H      0.604484     0.188032     0.646177     0.1   
H1       H      0.104484     0.688031     0.646177     0.1   
H1       H      0.113286     0.072196     0.417768     0.1   
H1       H      0.613287     0.572197     0.417768     0.1   
H1       H      0.613287     0.072196     0.917769     0.1   
H1       H      0.113286     0.572197     0.917769     0.1   
H1       H      0.12526      0.0557803    0.376112     0.1   
H1       H      0.625261     0.55578      0.376112     0.1   
H1       H      0.625261     0.0557803    0.876113     0.1   
H1       H      0.12526      0.55578      0.876113     0.1   
H1       H      0.194082     0.15927      0.237828     0.1   
H1       H      0.694082     0.659271     0.237828     0.1   
H1       H      0.694082     0.15927      0.737827     0.1   
H1       H      0.194082     0.659271     0.737827     0.1   
H1       H      0.199148     0.239929     0.349161     0.1   
H1       H      0.699147     0.739928     0.349161     0.1   
H1       H      0.699147     0.239929     0.84916      0.1   
H1       H      0.199148     0.739928     0.84916      0.1   
Cr2      Cr     0.9534       0.227401     0.0547996    1.62  
Cr2      Cr     0.453399     0.7274       0.0547996    1.62  
Cr2      Cr     0.453399     0.227401     0.5548       1.62  
Cr2      Cr     0.9534       0.7274       0.5548       1.62  
Cr1      Cr     0.84         0.1303       0.0135998    1.859 
Cr1      Cr     0.339999     0.630301     0.0135998    1.859 
Cr1      Cr     0.339999     0.1303       0.5136       1.859 
Cr1      Cr     0.84         0.630301     0.5136       1.859 
O2       O      0.0437003    0.182901     0.0957003   -0.731 
O2       O      0.5437       0.6829       0.0957003   -0.731 
O2       O      0.5437       0.182901     0.5957      -0.731 
O2       O      0.0437003    0.6829       0.5957      -0.731 
O2       O      0.0650004    0.1644       0.1153      -0.731 
O2       O      0.565        0.664399     0.1153      -0.731 
O2       O      0.565        0.1644       0.6153      -0.731 
O2       O      0.0650004    0.664399     0.6153      -0.731 
O2       O      0.911499     0.123501     0.0982996   -0.731 
O2       O      0.4115       0.6235       0.0982996   -0.731 
O2       O      0.4115       0.123501     0.5983      -0.731 
O2       O      0.911499     0.6235       0.5983      -0.731 
O2       O      0.8487       0.100101     0.1284      -0.731 
O2       O      0.3487       0.6001       0.1284      -0.731 
O2       O      0.3487       0.100101     0.628399    -0.731 
O2       O      0.8487       0.6001       0.628399    -0.731 
O2       O      0.883899     0.1154       0.0904003   -0.731 
O2       O      0.3839       0.6154       0.0904003   -0.731 
O2       O      0.3839       0.1154       0.5904      -0.731 
O2       O      0.883899     0.6154       0.5904      -0.731 
O2       O      0.9823       0.1991       0.0764001   -0.731 
O2       O      0.4823       0.6991       0.0764001   -0.731 
O2       O      0.4823       0.1991       0.576399    -0.731 
O2       O      0.9823       0.6991       0.576399    -0.731 
O2       O      0.9481       0.1609       0.0613999   -0.731 
O2       O      0.448099     0.6609       0.0613999   -0.731 
O2       O      0.448099     0.1609       0.561401    -0.731 
O2       O      0.9481       0.6609       0.561401    -0.731 
O3       O      0.9734       0.228        0.0724004   -0.587 
O3       O      0.473401     0.728001     0.0724004   -0.587 
O3       O      0.473401     0.228        0.5724      -0.587 
O3       O      0.9734       0.728001     0.5724      -0.587 
O2       O      0.5121       0.215799     0.472301    -0.731 
O2       O      0.0121006    0.7158       0.472301    -0.731 
O2       O      0.0121006    0.215799     0.9723      -0.731 
O2       O      0.5121       0.7158       0.9723      -0.731 
O3       O      0.9302       0.225301     0.0461994   -0.587 
O3       O      0.4302       0.7253       0.0461994   -0.587 
O3       O      0.4302       0.225301     0.5462      -0.587 
O3       O      0.9302       0.7253       0.5462      -0.587 
O2       O      0.9405       0.1739       0.0346996   -0.731 
O2       O      0.440501     0.673901     0.0346996   -0.731 
O2       O      0.440501     0.1739       0.5347      -0.731 
O2       O      0.9405       0.673901     0.5347      -0.731 
O2       O      0.3033       0.158401     0.4987      -0.731 
O2       O      0.803301     0.6584       0.4987      -0.731 
O2       O      0.803301     0.158401     0.9987      -0.731 
O2       O      0.3033       0.6584       0.9987      -0.731 
O2       O      0.820299     0.0273998    0.1698      -0.731 
O2       O      0.3203       0.5274       0.1698      -0.731 
O2       O      0.3203       0.0273998    0.669799    -0.731 
O2       O      0.820299     0.5274       0.669799    -0.731 
O2       O      0.8134       0.1312       0.00990046  -0.731 
O2       O      0.313399     0.6312       0.00990046  -0.731 
O2       O      0.313399     0.1312       0.5099      -0.731 
O2       O      0.8134       0.6312       0.5099      -0.731 
O2       O      0.8292       0.0382       0.1407      -0.731 
O2       O      0.329201     0.538199     0.1407      -0.731 
O2       O      0.329201     0.0382       0.6407      -0.731 
O2       O      0.8292       0.538199     0.6407      -0.731 
O2       O      0.8634       0.1316       0.0249994   -0.731 
O2       O      0.3634       0.631599     0.0249994   -0.731 
O2       O      0.3634       0.1316       0.525       -0.731 
O2       O      0.8634       0.631599     0.525       -0.731 
O3       O      0.8816       0.1485       0.00680057  -0.587 
O3       O      0.3816       0.648499     0.00680057  -0.587 
O3       O      0.3816       0.1485       0.5068      -0.587 
O3       O      0.8816       0.648499     0.5068      -0.587 
F1       F      0.9483       0.2514       0.0652007   -0.566 
F1       F      0.4483       0.751399     0.0652007   -0.566 
F1       F      0.4483       0.2514       0.5652      -0.566 
F1       F      0.9483       0.751399     0.5652      -0.566 
C3       C      0.8317       0.0749996    0.151101     0.11  
C3       C      0.3317       0.575        0.151101     0.11  
C3       C      0.3317       0.0749996    0.6511       0.11  
C3       C      0.8317       0.575        0.6511       0.11  
C2       C      0.8209       0.0616001    0.1644      -0.274 
C2       C      0.320899     0.561599     0.1644      -0.274 
C2       C      0.320899     0.0616001    0.664399    -0.274 
C2       C      0.8209       0.561599     0.664399    -0.274 
C1       C      0.8221       0.0415002    0.1577       0.848 
C1       C      0.3221       0.541499     0.1577       0.848 
C1       C      0.3221       0.0415002    0.6577       0.848 
C1       C      0.8221       0.541499     0.6577       0.848 
C3       C      0.0161003    0.2092       0.0899998    0.11  
C3       C      0.5161       0.7092       0.0899998    0.11  
C3       C      0.5161       0.2092       0.590001     0.11  
C3       C      0.0161003    0.7092       0.590001     0.11  
C2       C      0.00260062   0.2225       0.0865995   -0.274 
C2       C      0.5026       0.7225       0.0865995   -0.274 
C2       C      0.5026       0.2225       0.5866      -0.274 
C2       C      0.00260062   0.7225       0.5866      -0.274 
C1       C      0.9863       0.2162       0.0776002    0.848 
C1       C      0.486299     0.716201     0.0776002    0.848 
C1       C      0.486299     0.2162       0.5776       0.848 
C1       C      0.9863       0.716201     0.5776       0.848 
C2       C      0.9226       0.1481       0.0469003   -0.274 
C2       C      0.422599     0.6481       0.0469003   -0.274 
C2       C      0.422599     0.1481       0.5469      -0.274 
C2       C      0.9226       0.6481       0.5469      -0.274 
C3       C      0.911499     0.1449       0.0311004    0.11  
C3       C      0.4115       0.6449       0.0311004    0.11  
C3       C      0.4115       0.1449       0.5311       0.11  
C3       C      0.911499     0.6449       0.5311       0.11  
C2       C      0.893401     0.1361       0.0344006   -0.274 
C2       C      0.3934       0.6361       0.0344006   -0.274 
C2       C      0.3934       0.1361       0.5344      -0.274 
C2       C      0.893401     0.6361       0.5344      -0.274 
C3       C      0.8884       0.129801     0.0528998    0.11  
C3       C      0.3884       0.6298       0.0528998    0.11  
C3       C      0.3884       0.129801     0.552901     0.11  
C3       C      0.8884       0.6298       0.552901     0.11  
C2       C      0.9022       0.1301       0.0674995   -0.274 
C2       C      0.4022       0.6301       0.0674995   -0.274 
C2       C      0.4022       0.1301       0.5675      -0.274 
C2       C      0.9022       0.6301       0.5675      -0.274 
C3       C      0.9203       0.136201     0.0627002    0.11  
C3       C      0.4203       0.6362       0.0627002    0.11  
C3       C      0.4203       0.136201     0.562699     0.11  
C3       C      0.9203       0.6362       0.562699     0.11  
C1       C      0.898701     0.123        0.0863005    0.848 
C1       C      0.3987       0.622999     0.0863005    0.848 
C1       C      0.3987       0.123        0.5863       0.848 
C1       C      0.898701     0.622999     0.5863       0.848 
C1       C      0.878501     0.1392       0.0217006    0.848 
C1       C      0.3785       0.6392       0.0217006    0.848 
C1       C      0.3785       0.1392       0.5217       0.848 
C1       C      0.878501     0.6392       0.5217       0.848 
C1       C      0.9373       0.1614       0.0475998    0.848 
C1       C      0.437301     0.6614       0.0475998    0.848 
C1       C      0.437301     0.1614       0.547601     0.848 
C1       C      0.9373       0.6614       0.547601     0.848 
C2       C      0.871199     0.2109       0.0153006   -0.274 
C2       C      0.3712       0.710901     0.0153006   -0.274 
C2       C      0.3712       0.2109       0.5153      -0.274 
C2       C      0.871199     0.710901     0.5153      -0.274 
C3       C      0.893401     0.209301     0.0175994    0.11  
C3       C      0.3934       0.7093       0.0175994    0.11  
C3       C      0.3934       0.209301     0.5176       0.11  
C3       C      0.893401     0.7093       0.5176       0.11  
C1       C      0.3019       0.1396       0.4995       0.848 
C1       C      0.8019       0.6396       0.4995       0.848 
C1       C      0.8019       0.1396       0.999499     0.848 
C1       C      0.3019       0.6396       0.999499     0.848 
H1       H      0.931992     0.179433     0.117892     0.1   
H1       H      0.431991     0.679432     0.117892     0.1   
H1       H      0.431991     0.179433     0.617893     0.1   
H1       H      0.931992     0.679432     0.617893     0.1   
H1       H      0.916676     0.233061     0.100955     0.1   
H1       H      0.416675     0.733061     0.100955     0.1   
H1       H      0.416675     0.233061     0.600954     0.1   
H1       H      0.916676     0.733061     0.600954     0.1   
H1       H      0.103823     0.104484     0.0619677    0.1   
H1       H      0.603824     0.604484     0.0619677    0.1   
H1       H      0.603824     0.104484     0.561968     0.1   
H1       H      0.103823     0.604484     0.561968     0.1   
H1       H      0.832231     0.113286     0.177804     0.1   
H1       H      0.332232     0.613287     0.177804     0.1   
H1       H      0.332232     0.113286     0.677804     0.1   
H1       H      0.832231     0.613287     0.677804     0.1   
H1       H      0.804812     0.0600104    0.189623     0.1   
H1       H      0.304813     0.560011     0.189623     0.1   
H1       H      0.304813     0.0600104    0.689624     0.1   
H1       H      0.804812     0.560011     0.689624     0.1   
H1       H      0.873888     0.12526      0.194221     0.1   
H1       H      0.373888     0.625261     0.194221     0.1   
H1       H      0.373888     0.12526      0.69422      0.1   
H1       H      0.873888     0.625261     0.69422      0.1   
H1       H      0.0121733    0.194082     0.0907295    0.1   
H1       H      0.512173     0.694082     0.0907295    0.1   
H1       H      0.512173     0.194082     0.59073      0.1   
H1       H      0.0121733    0.694082     0.59073      0.1   
H1       H      0.900839     0.199148     0.0100719    0.1   
H1       H      0.40084      0.699147     0.0100719    0.1   
H1       H      0.40084      0.199148     0.510071     0.1   
H1       H      0.900839     0.699147     0.510071     0.1   
Cr1      Cr     0.9534       0.0226004    0.1952       1.859 
Cr1      Cr     0.453399     0.5226       0.1952       1.859 
Cr1      Cr     0.453399     0.0226004    0.695199     1.859 
Cr1      Cr     0.9534       0.5226       0.695199     1.859 
Cr1      Cr     0.84         0.1197       0.2364       1.859 
Cr1      Cr     0.339999     0.619701     0.2364       1.859 
Cr1      Cr     0.339999     0.1197       0.736401     1.859 
Cr1      Cr     0.84         0.619701     0.736401     1.859 
O2       O      0.0437003    0.0671004    0.154299    -0.731 
O2       O      0.5437       0.5671       0.154299    -0.731 
O2       O      0.5437       0.0671004    0.6543      -0.731 
O2       O      0.0437003    0.5671       0.6543      -0.731 
O2       O      0.0650004    0.0855996    0.1347      -0.731 
O2       O      0.565        0.5856       0.1347      -0.731 
O2       O      0.565        0.0855996    0.634699    -0.731 
O2       O      0.0650004    0.5856       0.634699    -0.731 
O2       O      0.911499     0.1265       0.1517      -0.731 
O2       O      0.4115       0.6265       0.1517      -0.731 
O2       O      0.4115       0.1265       0.651699    -0.731 
O2       O      0.911499     0.6265       0.651699    -0.731 
O3       O      0.8487       0.1499       0.1216      -0.587 
O3       O      0.3487       0.6499       0.1216      -0.587 
O3       O      0.3487       0.1499       0.6216      -0.587 
O3       O      0.8487       0.6499       0.6216      -0.587 
O3       O      0.883899     0.1346       0.159599    -0.587 
O3       O      0.3839       0.634601     0.159599    -0.587 
O3       O      0.3839       0.1346       0.6596      -0.587 
O3       O      0.883899     0.634601     0.6596      -0.587 
O3       O      0.9823       0.0509       0.1736      -0.587 
O3       O      0.4823       0.550899     0.1736      -0.587 
O3       O      0.4823       0.0509       0.6736      -0.587 
O3       O      0.9823       0.550899     0.6736      -0.587 
O3       O      0.9481       0.0891       0.1886      -0.587 
O3       O      0.448099     0.589099     0.1886      -0.587 
O3       O      0.448099     0.0891       0.6886      -0.587 
O3       O      0.9481       0.589099     0.6886      -0.587 
O2       O      0.9734       0.0219997    0.177601    -0.731 
O2       O      0.473401     0.522        0.177601    -0.731 
O2       O      0.473401     0.0219997    0.6776      -0.731 
O2       O      0.9734       0.522        0.6776      -0.731 
O2       O      0.0121006    0.0342003    0.2777      -0.731 
O2       O      0.5121       0.5342       0.2777      -0.731 
O2       O      0.5121       0.0342003    0.777701    -0.731 
O2       O      0.0121006    0.5342       0.777701    -0.731 
O2       O      0.9302       0.0247004    0.2038      -0.731 
O2       O      0.4302       0.5247       0.2038      -0.731 
O2       O      0.4302       0.0247004    0.7038      -0.731 
O2       O      0.9302       0.5247       0.7038      -0.731 
O2       O      0.9405       0.0760997    0.2153      -0.731 
O2       O      0.440501     0.5761       0.2153      -0.731 
O2       O      0.440501     0.0760997    0.715299    -0.731 
O2       O      0.9405       0.5761       0.715299    -0.731 
O3       O      0.803301     0.0916005    0.2513      -0.587 
O3       O      0.3033       0.5916       0.2513      -0.587 
O3       O      0.3033       0.0916005    0.751301    -0.587 
O3       O      0.803301     0.5916       0.751301    -0.587 
O3       O      0.820299     0.2226       0.0801995   -0.587 
O3       O      0.3203       0.722601     0.0801995   -0.587 
O3       O      0.3203       0.2226       0.5802      -0.587 
O3       O      0.820299     0.722601     0.5802      -0.587 
O2       O      0.8134       0.1188       0.240101    -0.731 
O2       O      0.313399     0.618799     0.240101    -0.731 
O2       O      0.313399     0.1188       0.7401      -0.731 
O2       O      0.8134       0.618799     0.7401      -0.731 
O2       O      0.8292       0.2118       0.1093      -0.731 
O2       O      0.329201     0.7118       0.1093      -0.731 
O2       O      0.329201     0.2118       0.609299    -0.731 
O2       O      0.8292       0.7118       0.609299    -0.731 
O2       O      0.8634       0.1184       0.225       -0.731 
O2       O      0.3634       0.6184       0.225       -0.731 
O2       O      0.3634       0.1184       0.725       -0.731 
O2       O      0.8634       0.6184       0.725       -0.731 
O2       O      0.8816       0.1015       0.2432      -0.731 
O2       O      0.3816       0.6015       0.2432      -0.731 
O2       O      0.3816       0.1015       0.7432      -0.731 
O2       O      0.8816       0.6015       0.7432      -0.731 
C3       C      0.8317       0.175        0.0989004    0.11  
C3       C      0.3317       0.674999     0.0989004    0.11  
C3       C      0.3317       0.175        0.5989       0.11  
C3       C      0.8317       0.674999     0.5989       0.11  
C2       C      0.8209       0.1884       0.0855996   -0.274 
C2       C      0.320899     0.6884       0.0855996   -0.274 
C2       C      0.320899     0.1884       0.5856      -0.274 
C2       C      0.8209       0.6884       0.5856      -0.274 
C1       C      0.8221       0.208499     0.0923001    0.848 
C1       C      0.3221       0.7085       0.0923001    0.848 
C1       C      0.3221       0.208499     0.592299     0.848 
C1       C      0.8221       0.7085       0.592299     0.848 
C3       C      0.0161003    0.0408007    0.16         0.11  
C3       C      0.5161       0.5408       0.16         0.11  
C3       C      0.5161       0.0408007    0.660001     0.11  
C3       C      0.0161003    0.5408       0.660001     0.11  
C2       C      0.00260062   0.0274999    0.1634      -0.274 
C2       C      0.5026       0.527501     0.1634      -0.274 
C2       C      0.5026       0.0274999    0.663399    -0.274 
C2       C      0.00260062   0.527501     0.663399    -0.274 
C1       C      0.9863       0.0337998    0.172399     0.848 
C1       C      0.486299     0.533801     0.172399     0.848 
C1       C      0.486299     0.0337998    0.6724       0.848 
C1       C      0.9863       0.533801     0.6724       0.848 
C2       C      0.9226       0.1019       0.203099    -0.274 
C2       C      0.422599     0.601899     0.203099    -0.274 
C2       C      0.422599     0.1019       0.7031      -0.274 
C2       C      0.9226       0.601899     0.7031      -0.274 
C3       C      0.911499     0.1051       0.218901     0.11  
C3       C      0.4115       0.605099     0.218901     0.11  
C3       C      0.4115       0.1051       0.7189       0.11  
C3       C      0.911499     0.605099     0.7189       0.11  
C2       C      0.893401     0.113901     0.2156      -0.274 
C2       C      0.3934       0.6139       0.2156      -0.274 
C2       C      0.3934       0.113901     0.7156      -0.274 
C2       C      0.893401     0.6139       0.7156      -0.274 
C3       C      0.8884       0.1202       0.1971       0.11  
C3       C      0.3884       0.6202       0.1971       0.11  
C3       C      0.3884       0.1202       0.697101     0.11  
C3       C      0.8884       0.6202       0.697101     0.11  
C2       C      0.9022       0.1199       0.1825      -0.274 
C2       C      0.4022       0.619899     0.1825      -0.274 
C2       C      0.4022       0.1199       0.682499    -0.274 
C2       C      0.9022       0.619899     0.682499    -0.274 
C3       C      0.9203       0.1138       0.187299     0.11  
C3       C      0.4203       0.6138       0.187299     0.11  
C3       C      0.4203       0.1138       0.6873       0.11  
C3       C      0.9203       0.6138       0.6873       0.11  
C1       C      0.898701     0.127        0.163701     0.848 
C1       C      0.3987       0.627        0.163701     0.848 
C1       C      0.3987       0.127        0.6637       0.848 
C1       C      0.898701     0.627        0.6637       0.848 
C1       C      0.878501     0.110801     0.2283       0.848 
C1       C      0.3785       0.6108       0.2283       0.848 
C1       C      0.3785       0.110801     0.7283       0.848 
C1       C      0.878501     0.6108       0.7283       0.848 
C1       C      0.9373       0.0885994    0.2024       0.848 
C1       C      0.437301     0.5886       0.2024       0.848 
C1       C      0.437301     0.0885994    0.7024       0.848 
C1       C      0.9373       0.5886       0.7024       0.848 
C2       C      0.871199     0.0390998    0.2347      -0.274 
C2       C      0.3712       0.539101     0.2347      -0.274 
C2       C      0.3712       0.0390998    0.7347      -0.274 
C2       C      0.871199     0.539101     0.7347      -0.274 
C3       C      0.893401     0.0407005    0.2324       0.11  
C3       C      0.3934       0.5407       0.2324       0.11  
C3       C      0.3934       0.0407005    0.7324       0.11  
C3       C      0.893401     0.5407       0.7324       0.11  
C1       C      0.8019       0.1104       0.2505       0.848 
C1       C      0.3019       0.610399     0.2505       0.848 
C1       C      0.3019       0.1104       0.7505       0.848 
C1       C      0.8019       0.610399     0.7505       0.848 
H1       H      0.931992     0.0705665    0.132108     0.1   
H1       H      0.431991     0.570567     0.132108     0.1   
H1       H      0.431991     0.0705665    0.632108     0.1   
H1       H      0.931992     0.570567     0.632108     0.1   
H1       H      0.916676     0.0169397    0.149046     0.1   
H1       H      0.416675     0.516939     0.149046     0.1   
H1       H      0.416675     0.0169397    0.649045     0.1   
H1       H      0.916676     0.516939     0.649045     0.1   
H1       H      0.832231     0.136714     0.072196     0.1   
H1       H      0.332232     0.636714     0.072196     0.1   
H1       H      0.332232     0.136714     0.572197     0.1   
H1       H      0.832231     0.636714     0.572197     0.1   
H1       H      0.804812     0.189989     0.0603766    0.1   
H1       H      0.304813     0.689989     0.0603766    0.1   
H1       H      0.304813     0.189989     0.560376     0.1   
H1       H      0.804812     0.689989     0.560376     0.1   
H1       H      0.873888     0.124739     0.0557803    0.1   
H1       H      0.373888     0.62474      0.0557803    0.1   
H1       H      0.373888     0.124739     0.55578      0.1   
H1       H      0.873888     0.62474      0.55578      0.1   
H1       H      0.0121733    0.0559174    0.15927      0.1   
H1       H      0.512173     0.555918     0.15927      0.1   
H1       H      0.512173     0.0559174    0.659271     0.1   
H1       H      0.0121733    0.555918     0.659271     0.1   
H1       H      0.900839     0.050852     0.239929     0.1   
H1       H      0.40084      0.550853     0.239929     0.1   
H1       H      0.40084      0.050852     0.739928     0.1   
H1       H      0.900839     0.550853     0.739928     0.1   
Cr1      Cr     0.2966       0.0226004    0.0547996    1.859 
Cr1      Cr     0.7966       0.5226       0.0547996    1.859 
Cr1      Cr     0.7966       0.0226004    0.5548       1.859 
Cr1      Cr     0.2966       0.5226       0.5548       1.859 
Cr1      Cr     0.409999     0.1197       0.0135998    1.859 
Cr1      Cr     0.91         0.619701     0.0135998    1.859 
Cr1      Cr     0.91         0.1197       0.5136       1.859 
Cr1      Cr     0.409999     0.619701     0.5136       1.859 
O2       O      0.206299     0.0671004    0.0957003   -0.731 
O2       O      0.7063       0.5671       0.0957003   -0.731 
O2       O      0.7063       0.0671004    0.5957      -0.731 
O2       O      0.206299     0.5671       0.5957      -0.731 
O2       O      0.185001     0.0855996    0.1153      -0.731 
O2       O      0.685        0.5856       0.1153      -0.731 
O2       O      0.685        0.0855996    0.6153      -0.731 
O2       O      0.185001     0.5856       0.6153      -0.731 
O2       O      0.3385       0.1265       0.0982996   -0.731 
O2       O      0.8385       0.6265       0.0982996   -0.731 
O2       O      0.8385       0.1265       0.5983      -0.731 
O2       O      0.3385       0.6265       0.5983      -0.731 
O3       O      0.401301     0.1499       0.1284      -0.587 
O3       O      0.9013       0.6499       0.1284      -0.587 
O3       O      0.9013       0.1499       0.628399    -0.587 
O3       O      0.401301     0.6499       0.628399    -0.587 
O3       O      0.3661       0.1346       0.0904003   -0.587 
O3       O      0.8661       0.634601     0.0904003   -0.587 
O3       O      0.8661       0.1346       0.5904      -0.587 
O3       O      0.3661       0.634601     0.5904      -0.587 
O3       O      0.267701     0.0509       0.0764001   -0.587 
O3       O      0.7677       0.550899     0.0764001   -0.587 
O3       O      0.7677       0.0509       0.576399    -0.587 
O3       O      0.267701     0.550899     0.576399    -0.587 
O3       O      0.3019       0.0891       0.0613999   -0.587 
O3       O      0.8019       0.589099     0.0613999   -0.587 
O3       O      0.8019       0.0891       0.561401    -0.587 
O3       O      0.3019       0.589099     0.561401    -0.587 
O2       O      0.2766       0.0219997    0.0724004   -0.731 
O2       O      0.7766       0.522        0.0724004   -0.731 
O2       O      0.7766       0.0219997    0.5724      -0.731 
O2       O      0.2766       0.522        0.5724      -0.731 
O2       O      0.7379       0.0342003    0.472301    -0.731 
O2       O      0.2379       0.5342       0.472301    -0.731 
O2       O      0.2379       0.0342003    0.9723      -0.731 
O2       O      0.7379       0.5342       0.9723      -0.731 
O2       O      0.319799     0.0247004    0.0461994   -0.731 
O2       O      0.8198       0.5247       0.0461994   -0.731 
O2       O      0.8198       0.0247004    0.5462      -0.731 
O2       O      0.319799     0.5247       0.5462      -0.731 
O2       O      0.3095       0.0760997    0.0346996   -0.731 
O2       O      0.8095       0.5761       0.0346996   -0.731 
O2       O      0.8095       0.0760997    0.5347      -0.731 
O2       O      0.3095       0.5761       0.5347      -0.731 
O2       O      0.9467       0.0916005    0.4987      -0.731 
O2       O      0.4467       0.5916       0.4987      -0.731 
O2       O      0.4467       0.0916005    0.9987      -0.731 
O2       O      0.9467       0.5916       0.9987      -0.731 
O2       O      0.4297       0.2226       0.1698      -0.731 
O2       O      0.9297       0.722601     0.1698      -0.731 
O2       O      0.9297       0.2226       0.669799    -0.731 
O2       O      0.4297       0.722601     0.669799    -0.731 
O2       O      0.4366       0.1188       0.00990046  -0.731 
O2       O      0.9366       0.618799     0.00990046  -0.731 
O2       O      0.9366       0.1188       0.5099      -0.731 
O2       O      0.4366       0.618799     0.5099      -0.731 
O2       O      0.4208       0.2118       0.1407      -0.731 
O2       O      0.9208       0.7118       0.1407      -0.731 
O2       O      0.9208       0.2118       0.6407      -0.731 
O2       O      0.4208       0.7118       0.6407      -0.731 
O2       O      0.386599     0.1184       0.0249994   -0.731 
O2       O      0.8866       0.6184       0.0249994   -0.731 
O2       O      0.8866       0.1184       0.525       -0.731 
O2       O      0.386599     0.6184       0.525       -0.731 
O3       O      0.368401     0.1015       0.00680057  -0.587 
O3       O      0.8684       0.6015       0.00680057  -0.587 
O3       O      0.8684       0.1015       0.5068      -0.587 
O3       O      0.368401     0.6015       0.5068      -0.587 
C3       C      0.418301     0.175        0.151101     0.11  
C3       C      0.9183       0.674999     0.151101     0.11  
C3       C      0.9183       0.175        0.6511       0.11  
C3       C      0.418301     0.674999     0.6511       0.11  
C2       C      0.4291       0.1884       0.1644      -0.274 
C2       C      0.9291       0.6884       0.1644      -0.274 
C2       C      0.9291       0.1884       0.664399    -0.274 
C2       C      0.4291       0.6884       0.664399    -0.274 
C1       C      0.427901     0.208499     0.1577       0.848 
C1       C      0.9279       0.7085       0.1577       0.848 
C1       C      0.9279       0.208499     0.6577       0.848 
C1       C      0.427901     0.7085       0.6577       0.848 
C3       C      0.233899     0.0408007    0.0899998    0.11  
C3       C      0.7339       0.5408       0.0899998    0.11  
C3       C      0.7339       0.0408007    0.590001     0.11  
C3       C      0.233899     0.5408       0.590001     0.11  
C2       C      0.2474       0.0274999    0.0865995   -0.274 
C2       C      0.7474       0.527501     0.0865995   -0.274 
C2       C      0.7474       0.0274999    0.5866      -0.274 
C2       C      0.2474       0.527501     0.5866      -0.274 
C1       C      0.2637       0.0337998    0.0776002    0.848 
C1       C      0.7637       0.533801     0.0776002    0.848 
C1       C      0.7637       0.0337998    0.5776       0.848 
C1       C      0.2637       0.533801     0.5776       0.848 
C2       C      0.3274       0.1019       0.0469003   -0.274 
C2       C      0.8274       0.601899     0.0469003   -0.274 
C2       C      0.8274       0.1019       0.5469      -0.274 
C2       C      0.3274       0.601899     0.5469      -0.274 
C3       C      0.3385       0.1051       0.0311004    0.11  
C3       C      0.8385       0.605099     0.0311004    0.11  
C3       C      0.8385       0.1051       0.5311       0.11  
C3       C      0.3385       0.605099     0.5311       0.11  
C2       C      0.3566       0.113901     0.0344006   -0.274 
C2       C      0.8566       0.6139       0.0344006   -0.274 
C2       C      0.8566       0.113901     0.5344      -0.274 
C2       C      0.3566       0.6139       0.5344      -0.274 
C3       C      0.3616       0.1202       0.0528998    0.11  
C3       C      0.861601     0.6202       0.0528998    0.11  
C3       C      0.861601     0.1202       0.552901     0.11  
C3       C      0.3616       0.6202       0.552901     0.11  
C2       C      0.3478       0.1199       0.0674995   -0.274 
C2       C      0.847801     0.619899     0.0674995   -0.274 
C2       C      0.847801     0.1199       0.5675      -0.274 
C2       C      0.3478       0.619899     0.5675      -0.274 
C3       C      0.3297       0.1138       0.0627002    0.11  
C3       C      0.829701     0.6138       0.0627002    0.11  
C3       C      0.829701     0.1138       0.562699     0.11  
C3       C      0.3297       0.6138       0.562699     0.11  
C1       C      0.3513       0.127        0.0863005    0.848 
C1       C      0.8513       0.627        0.0863005    0.848 
C1       C      0.8513       0.127        0.5863       0.848 
C1       C      0.3513       0.627        0.5863       0.848 
C1       C      0.3715       0.110801     0.0217006    0.848 
C1       C      0.8715       0.6108       0.0217006    0.848 
C1       C      0.8715       0.110801     0.5217       0.848 
C1       C      0.3715       0.6108       0.5217       0.848 
C1       C      0.3127       0.0885994    0.0475998    0.848 
C1       C      0.812701     0.5886       0.0475998    0.848 
C1       C      0.812701     0.0885994    0.547601     0.848 
C1       C      0.3127       0.5886       0.547601     0.848 
C2       C      0.3788       0.0390998    0.0153006   -0.274 
C2       C      0.8788       0.539101     0.0153006   -0.274 
C2       C      0.8788       0.0390998    0.5153      -0.274 
C2       C      0.3788       0.539101     0.5153      -0.274 
C3       C      0.3566       0.0407005    0.0175994    0.11  
C3       C      0.8566       0.5407       0.0175994    0.11  
C3       C      0.8566       0.0407005    0.5176       0.11  
C3       C      0.3566       0.5407       0.5176       0.11  
C1       C      0.9481       0.1104       0.4995       0.848 
C1       C      0.448099     0.610399     0.4995       0.848 
C1       C      0.448099     0.1104       0.999499     0.848 
C1       C      0.9481       0.610399     0.999499     0.848 
H1       H      0.318008     0.0705665    0.117892     0.1   
H1       H      0.818009     0.570567     0.117892     0.1   
H1       H      0.818009     0.0705665    0.617893     0.1   
H1       H      0.318008     0.570567     0.617893     0.1   
H1       H      0.333324     0.0169397    0.100955     0.1   
H1       H      0.833324     0.516939     0.100955     0.1   
H1       H      0.833324     0.0169397    0.600954     0.1   
H1       H      0.333324     0.516939     0.600954     0.1   
H1       H      0.417768     0.136714     0.177804     0.1   
H1       H      0.917769     0.636714     0.177804     0.1   
H1       H      0.917769     0.136714     0.677804     0.1   
H1       H      0.417768     0.636714     0.677804     0.1   
H1       H      0.445187     0.189989     0.189623     0.1   
H1       H      0.945188     0.689989     0.189623     0.1   
H1       H      0.945188     0.189989     0.689624     0.1   
H1       H      0.445187     0.689989     0.689624     0.1   
H1       H      0.376112     0.124739     0.194221     0.1   
H1       H      0.876113     0.62474      0.194221     0.1   
H1       H      0.876113     0.124739     0.69422      0.1   
H1       H      0.376112     0.62474      0.69422      0.1   
H1       H      0.237828     0.0559174    0.0907295    0.1   
H1       H      0.737827     0.555918     0.0907295    0.1   
H1       H      0.737827     0.0559174    0.59073      0.1   
H1       H      0.237828     0.555918     0.59073      0.1   
H1       H      0.349161     0.050852     0.0100719    0.1   
H1       H      0.84916      0.550853     0.0100719    0.1   
H1       H      0.84916      0.050852     0.510071     0.1   
H1       H      0.349161     0.550853     0.510071     0.1   
Cr1      Cr     0.2966       0.227401     0.1952       1.859 
Cr1      Cr     0.7966       0.7274       0.1952       1.859 
Cr1      Cr     0.7966       0.227401     0.695199     1.859 
Cr1      Cr     0.2966       0.7274       0.695199     1.859 
Cr1      Cr     0.409999     0.1303       0.2364       1.859 
Cr1      Cr     0.91         0.630301     0.2364       1.859 
Cr1      Cr     0.91         0.1303       0.736401     1.859 
Cr1      Cr     0.409999     0.630301     0.736401     1.859 
O2       O      0.206299     0.182901     0.154299    -0.731 
O2       O      0.7063       0.6829       0.154299    -0.731 
O2       O      0.7063       0.182901     0.6543      -0.731 
O2       O      0.206299     0.6829       0.6543      -0.731 
O2       O      0.185001     0.1644       0.1347      -0.731 
O2       O      0.685        0.664399     0.1347      -0.731 
O2       O      0.685        0.1644       0.634699    -0.731 
O2       O      0.185001     0.664399     0.634699    -0.731 
O2       O      0.3385       0.123501     0.1517      -0.731 
O2       O      0.8385       0.6235       0.1517      -0.731 
O2       O      0.8385       0.123501     0.651699    -0.731 
O2       O      0.3385       0.6235       0.651699    -0.731 
O2       O      0.401301     0.100101     0.1216      -0.731 
O2       O      0.9013       0.6001       0.1216      -0.731 
O2       O      0.9013       0.100101     0.6216      -0.731 
O2       O      0.401301     0.6001       0.6216      -0.731 
O2       O      0.3661       0.1154       0.159599    -0.731 
O2       O      0.8661       0.6154       0.159599    -0.731 
O2       O      0.8661       0.1154       0.6596      -0.731 
O2       O      0.3661       0.6154       0.6596      -0.731 
O2       O      0.267701     0.1991       0.1736      -0.731 
O2       O      0.7677       0.6991       0.1736      -0.731 
O2       O      0.7677       0.1991       0.6736      -0.731 
O2       O      0.267701     0.6991       0.6736      -0.731 
O2       O      0.3019       0.1609       0.1886      -0.731 
O2       O      0.8019       0.6609       0.1886      -0.731 
O2       O      0.8019       0.1609       0.6886      -0.731 
O2       O      0.3019       0.6609       0.6886      -0.731 
O2       O      0.2766       0.228        0.177601    -0.731 
O2       O      0.7766       0.728001     0.177601    -0.731 
O2       O      0.7766       0.228        0.6776      -0.731 
O2       O      0.2766       0.728001     0.6776      -0.731 
O2       O      0.2379       0.215799     0.2777      -0.731 
O2       O      0.7379       0.7158       0.2777      -0.731 
O2       O      0.7379       0.215799     0.777701    -0.731 
O2       O      0.2379       0.7158       0.777701    -0.731 
O2       O      0.319799     0.225301     0.2038      -0.731 
O2       O      0.8198       0.7253       0.2038      -0.731 
O2       O      0.8198       0.225301     0.7038      -0.731 
O2       O      0.319799     0.7253       0.7038      -0.731 
O3       O      0.3095       0.1739       0.2153      -0.587 
O3       O      0.8095       0.673901     0.2153      -0.587 
O3       O      0.8095       0.1739       0.715299    -0.587 
O3       O      0.3095       0.673901     0.715299    -0.587 
O3       O      0.4467       0.158401     0.2513      -0.587 
O3       O      0.9467       0.6584       0.2513      -0.587 
O3       O      0.9467       0.158401     0.751301    -0.587 
O3       O      0.4467       0.6584       0.751301    -0.587 
O3       O      0.4297       0.0273998    0.0801995   -0.587 
O3       O      0.9297       0.5274       0.0801995   -0.587 
O3       O      0.9297       0.0273998    0.5802      -0.587 
O3       O      0.4297       0.5274       0.5802      -0.587 
O2       O      0.4366       0.1312       0.240101    -0.731 
O2       O      0.9366       0.6312       0.240101    -0.731 
O2       O      0.9366       0.1312       0.7401      -0.731 
O2       O      0.4366       0.6312       0.7401      -0.731 
O2       O      0.4208       0.0382       0.1093      -0.731 
O2       O      0.9208       0.538199     0.1093      -0.731 
O2       O      0.9208       0.0382       0.609299    -0.731 
O2       O      0.4208       0.538199     0.609299    -0.731 
O2       O      0.386599     0.1316       0.225       -0.731 
O2       O      0.8866       0.631599     0.225       -0.731 
O2       O      0.8866       0.1316       0.725       -0.731 
O2       O      0.386599     0.631599     0.725       -0.731 
O2       O      0.368401     0.1485       0.2432      -0.731 
O2       O      0.8684       0.648499     0.2432      -0.731 
O2       O      0.8684       0.1485       0.7432      -0.731 
O2       O      0.368401     0.648499     0.7432      -0.731 
C3       C      0.418301     0.0749996    0.0989004    0.11  
C3       C      0.9183       0.575        0.0989004    0.11  
C3       C      0.9183       0.0749996    0.5989       0.11  
C3       C      0.418301     0.575        0.5989       0.11  
C2       C      0.4291       0.0616001    0.0855996   -0.274 
C2       C      0.9291       0.561599     0.0855996   -0.274 
C2       C      0.9291       0.0616001    0.5856      -0.274 
C2       C      0.4291       0.561599     0.5856      -0.274 
C1       C      0.427901     0.0415002    0.0923001    0.848 
C1       C      0.9279       0.541499     0.0923001    0.848 
C1       C      0.9279       0.0415002    0.592299     0.848 
C1       C      0.427901     0.541499     0.592299     0.848 
C3       C      0.233899     0.2092       0.16         0.11  
C3       C      0.7339       0.7092       0.16         0.11  
C3       C      0.7339       0.2092       0.660001     0.11  
C3       C      0.233899     0.7092       0.660001     0.11  
C2       C      0.2474       0.2225       0.1634      -0.274 
C2       C      0.7474       0.7225       0.1634      -0.274 
C2       C      0.7474       0.2225       0.663399    -0.274 
C2       C      0.2474       0.7225       0.663399    -0.274 
C1       C      0.2637       0.2162       0.172399     0.848 
C1       C      0.7637       0.716201     0.172399     0.848 
C1       C      0.7637       0.2162       0.6724       0.848 
C1       C      0.2637       0.716201     0.6724       0.848 
C2       C      0.3274       0.1481       0.203099    -0.274 
C2       C      0.8274       0.6481       0.203099    -0.274 
C2       C      0.8274       0.1481       0.7031      -0.274 
C2       C      0.3274       0.6481       0.7031      -0.274 
C3       C      0.3385       0.1449       0.218901     0.11  
C3       C      0.8385       0.6449       0.218901     0.11  
C3       C      0.8385       0.1449       0.7189       0.11  
C3       C      0.3385       0.6449       0.7189       0.11  
C2       C      0.3566       0.1361       0.2156      -0.274 
C2       C      0.8566       0.6361       0.2156      -0.274 
C2       C      0.8566       0.1361       0.7156      -0.274 
C2       C      0.3566       0.6361       0.7156      -0.274 
C3       C      0.3616       0.129801     0.1971       0.11  
C3       C      0.861601     0.6298       0.1971       0.11  
C3       C      0.861601     0.129801     0.697101     0.11  
C3       C      0.3616       0.6298       0.697101     0.11  
C2       C      0.3478       0.1301       0.1825      -0.274 
C2       C      0.847801     0.6301       0.1825      -0.274 
C2       C      0.847801     0.1301       0.682499    -0.274 
C2       C      0.3478       0.6301       0.682499    -0.274 
C3       C      0.3297       0.136201     0.187299     0.11  
C3       C      0.829701     0.6362       0.187299     0.11  
C3       C      0.829701     0.136201     0.6873       0.11  
C3       C      0.3297       0.6362       0.6873       0.11  
C1       C      0.3513       0.123        0.163701     0.848 
C1       C      0.8513       0.622999     0.163701     0.848 
C1       C      0.8513       0.123        0.6637       0.848 
C1       C      0.3513       0.622999     0.6637       0.848 
C1       C      0.3715       0.1392       0.2283       0.848 
C1       C      0.8715       0.6392       0.2283       0.848 
C1       C      0.8715       0.1392       0.7283       0.848 
C1       C      0.3715       0.6392       0.7283       0.848 
C1       C      0.3127       0.1614       0.2024       0.848 
C1       C      0.812701     0.6614       0.2024       0.848 
C1       C      0.812701     0.1614       0.7024       0.848 
C1       C      0.3127       0.6614       0.7024       0.848 
C2       C      0.3788       0.2109       0.2347      -0.274 
C2       C      0.8788       0.710901     0.2347      -0.274 
C2       C      0.8788       0.2109       0.7347      -0.274 
C2       C      0.3788       0.710901     0.7347      -0.274 
C3       C      0.3566       0.209301     0.2324       0.11  
C3       C      0.8566       0.7093       0.2324       0.11  
C3       C      0.8566       0.209301     0.7324       0.11  
C3       C      0.3566       0.7093       0.7324       0.11  
C1       C      0.448099     0.1396       0.2505       0.848 
C1       C      0.9481       0.6396       0.2505       0.848 
C1       C      0.9481       0.1396       0.7505       0.848 
C1       C      0.448099     0.6396       0.7505       0.848 
H1       H      0.318008     0.179433     0.132108     0.1   
H1       H      0.818009     0.679432     0.132108     0.1   
H1       H      0.818009     0.179433     0.632108     0.1   
H1       H      0.318008     0.679432     0.632108     0.1   
H1       H      0.333324     0.233061     0.149046     0.1   
H1       H      0.833324     0.733061     0.149046     0.1   
H1       H      0.833324     0.233061     0.649045     0.1   
H1       H      0.333324     0.733061     0.649045     0.1   
H1       H      0.146176     0.104484     0.188032     0.1   
H1       H      0.646177     0.604484     0.188032     0.1   
H1       H      0.646177     0.104484     0.688031     0.1   
H1       H      0.146176     0.604484     0.688031     0.1   
H1       H      0.417768     0.113286     0.072196     0.1   
H1       H      0.917769     0.613287     0.072196     0.1   
H1       H      0.917769     0.113286     0.572197     0.1   
H1       H      0.417768     0.613287     0.572197     0.1   
H1       H      0.376112     0.12526      0.0557803    0.1   
H1       H      0.876113     0.625261     0.0557803    0.1   
H1       H      0.876113     0.12526      0.55578      0.1   
H1       H      0.376112     0.625261     0.55578      0.1   
H1       H      0.237828     0.194082     0.15927      0.1   
H1       H      0.737827     0.694082     0.15927      0.1   
H1       H      0.737827     0.194082     0.659271     0.1   
H1       H      0.237828     0.694082     0.659271     0.1   
H1       H      0.349161     0.199148     0.239929     0.1   
H1       H      0.84916      0.699147     0.239929     0.1   
H1       H      0.84916      0.199148     0.739928     0.1   
H1       H      0.349161     0.699147     0.739928     0.1   
Cr2      Cr     0.5548       0.453399     0.227401     1.62  
Cr2      Cr     0.0547996    0.9534       0.227401     1.62  
Cr2      Cr     0.0547996    0.453399     0.7274       1.62  
Cr2      Cr     0.5548       0.9534       0.7274       1.62  
Cr1      Cr     0.5136       0.339999     0.1303       1.859 
Cr1      Cr     0.0135998    0.84         0.1303       1.859 
Cr1      Cr     0.0135998    0.339999     0.630301     1.859 
Cr1      Cr     0.5136       0.84         0.630301     1.859 
O3       O      0.0957003    0.0437003    0.182901    -0.587 
O3       O      0.5957       0.5437       0.182901    -0.587 
O3       O      0.5957       0.0437003    0.6829      -0.587 
O3       O      0.0957003    0.5437       0.6829      -0.587 
O3       O      0.1153       0.0650004    0.1644      -0.587 
O3       O      0.6153       0.565        0.1644      -0.587 
O3       O      0.6153       0.0650004    0.664399    -0.587 
O3       O      0.1153       0.565        0.664399    -0.587 
O2       O      0.5983       0.4115       0.123501    -0.731 
O2       O      0.0982996    0.911499     0.123501    -0.731 
O2       O      0.0982996    0.4115       0.6235      -0.731 
O2       O      0.5983       0.911499     0.6235      -0.731 
O3       O      0.628399     0.3487       0.100101    -0.587 
O3       O      0.1284       0.8487       0.100101    -0.587 
O3       O      0.1284       0.3487       0.6001      -0.587 
O3       O      0.628399     0.8487       0.6001      -0.587 
O3       O      0.5904       0.3839       0.1154      -0.587 
O3       O      0.0904003    0.883899     0.1154      -0.587 
O3       O      0.0904003    0.3839       0.6154      -0.587 
O3       O      0.5904       0.883899     0.6154      -0.587 
O2       O      0.576399     0.4823       0.1991      -0.731 
O2       O      0.0764001    0.9823       0.1991      -0.731 
O2       O      0.0764001    0.4823       0.6991      -0.731 
O2       O      0.576399     0.9823       0.6991      -0.731 
O2       O      0.561401     0.448099     0.1609      -0.731 
O2       O      0.0613999    0.9481       0.1609      -0.731 
O2       O      0.0613999    0.448099     0.6609      -0.731 
O2       O      0.561401     0.9481       0.6609      -0.731 
O3       O      0.5724       0.473401     0.228       -0.587 
O3       O      0.0724004    0.9734       0.228       -0.587 
O3       O      0.0724004    0.473401     0.728001    -0.587 
O3       O      0.5724       0.9734       0.728001    -0.587 
O2       O      0.9723       0.0121006    0.215799    -0.731 
O2       O      0.472301     0.5121       0.215799    -0.731 
O2       O      0.472301     0.0121006    0.7158      -0.731 
O2       O      0.9723       0.5121       0.7158      -0.731 
O3       O      0.5462       0.4302       0.225301    -0.587 
O3       O      0.0461994    0.9302       0.225301    -0.587 
O3       O      0.0461994    0.4302       0.7253      -0.587 
O3       O      0.5462       0.9302       0.7253      -0.587 
O2       O      0.5347       0.440501     0.1739      -0.731 
O2       O      0.0346996    0.9405       0.1739      -0.731 
O2       O      0.0346996    0.440501     0.673901    -0.731 
O2       O      0.5347       0.9405       0.673901    -0.731 
O3       O      0.4987       0.3033       0.158401    -0.587 
O3       O      0.9987       0.803301     0.158401    -0.587 
O3       O      0.9987       0.3033       0.6584      -0.587 
O3       O      0.4987       0.803301     0.6584      -0.587 
O3       O      0.669799     0.3203       0.0273998   -0.587 
O3       O      0.1698       0.820299     0.0273998   -0.587 
O3       O      0.1698       0.3203       0.5274      -0.587 
O3       O      0.669799     0.820299     0.5274      -0.587 
O2       O      0.5099       0.313399     0.1312      -0.731 
O2       O      0.00990046   0.8134       0.1312      -0.731 
O2       O      0.00990046   0.313399     0.6312      -0.731 
O2       O      0.5099       0.8134       0.6312      -0.731 
O2       O      0.6407       0.329201     0.0382      -0.731 
O2       O      0.1407       0.8292       0.0382      -0.731 
O2       O      0.1407       0.329201     0.538199    -0.731 
O2       O      0.6407       0.8292       0.538199    -0.731 
O2       O      0.525        0.3634       0.1316      -0.731 
O2       O      0.0249994    0.8634       0.1316      -0.731 
O2       O      0.0249994    0.3634       0.631599    -0.731 
O2       O      0.525        0.8634       0.631599    -0.731 
O2       O      0.5068       0.3816       0.1485      -0.731 
O2       O      0.00680057   0.8816       0.1485      -0.731 
O2       O      0.00680057   0.3816       0.648499    -0.731 
O2       O      0.5068       0.8816       0.648499    -0.731 
F1       F      0.5652       0.4483       0.2514      -0.566 
F1       F      0.0652007    0.9483       0.2514      -0.566 
F1       F      0.0652007    0.4483       0.751399    -0.566 
F1       F      0.5652       0.9483       0.751399    -0.566 
C3       C      0.6511       0.3317       0.0749996    0.11  
C3       C      0.151101     0.8317       0.0749996    0.11  
C3       C      0.151101     0.3317       0.575        0.11  
C3       C      0.6511       0.8317       0.575        0.11  
C2       C      0.664399     0.320899     0.0616001   -0.274 
C2       C      0.1644       0.8209       0.0616001   -0.274 
C2       C      0.1644       0.320899     0.561599    -0.274 
C2       C      0.664399     0.8209       0.561599    -0.274 
C1       C      0.6577       0.3221       0.0415002    0.848 
C1       C      0.1577       0.8221       0.0415002    0.848 
C1       C      0.1577       0.3221       0.541499     0.848 
C1       C      0.6577       0.8221       0.541499     0.848 
C3       C      0.0899998    0.0161003    0.2092       0.11  
C3       C      0.590001     0.5161       0.2092       0.11  
C3       C      0.590001     0.0161003    0.7092       0.11  
C3       C      0.0899998    0.5161       0.7092       0.11  
C2       C      0.0865995    0.00260062   0.2225      -0.274 
C2       C      0.5866       0.5026       0.2225      -0.274 
C2       C      0.5866       0.00260062   0.7225      -0.274 
C2       C      0.0865995    0.5026       0.7225      -0.274 
C1       C      0.5776       0.486299     0.2162       0.848 
C1       C      0.0776002    0.9863       0.2162       0.848 
C1       C      0.0776002    0.486299     0.716201     0.848 
C1       C      0.5776       0.9863       0.716201     0.848 
C2       C      0.5469       0.422599     0.1481      -0.274 
C2       C      0.0469003    0.9226       0.1481      -0.274 
C2       C      0.0469003    0.422599     0.6481      -0.274 
C2       C      0.5469       0.9226       0.6481      -0.274 
C3       C      0.5311       0.4115       0.1449       0.11  
C3       C      0.0311004    0.911499     0.1449       0.11  
C3       C      0.0311004    0.4115       0.6449       0.11  
C3       C      0.5311       0.911499     0.6449       0.11  
C2       C      0.5344       0.3934       0.1361      -0.274 
C2       C      0.0344006    0.893401     0.1361      -0.274 
C2       C      0.0344006    0.3934       0.6361      -0.274 
C2       C      0.5344       0.893401     0.6361      -0.274 
C3       C      0.552901     0.3884       0.129801     0.11  
C3       C      0.0528998    0.8884       0.129801     0.11  
C3       C      0.0528998    0.3884       0.6298       0.11  
C3       C      0.552901     0.8884       0.6298       0.11  
C2       C      0.5675       0.4022       0.1301      -0.274 
C2       C      0.0674995    0.9022       0.1301      -0.274 
C2       C      0.0674995    0.4022       0.6301      -0.274 
C2       C      0.5675       0.9022       0.6301      -0.274 
C3       C      0.562699     0.4203       0.136201     0.11  
C3       C      0.0627002    0.9203       0.136201     0.11  
C3       C      0.0627002    0.4203       0.6362       0.11  
C3       C      0.562699     0.9203       0.6362       0.11  
C1       C      0.5863       0.3987       0.123        0.848 
C1       C      0.0863005    0.898701     0.123        0.848 
C1       C      0.0863005    0.3987       0.622999     0.848 
C1       C      0.5863       0.898701     0.622999     0.848 
C1       C      0.5217       0.3785       0.1392       0.848 
C1       C      0.0217006    0.878501     0.1392       0.848 
C1       C      0.0217006    0.3785       0.6392       0.848 
C1       C      0.5217       0.878501     0.6392       0.848 
C1       C      0.547601     0.437301     0.1614       0.848 
C1       C      0.0475998    0.9373       0.1614       0.848 
C1       C      0.0475998    0.437301     0.6614       0.848 
C1       C      0.547601     0.9373       0.6614       0.848 
C2       C      0.5153       0.3712       0.2109      -0.274 
C2       C      0.0153006    0.871199     0.2109      -0.274 
C2       C      0.0153006    0.3712       0.710901    -0.274 
C2       C      0.5153       0.871199     0.710901    -0.274 
C3       C      0.5176       0.3934       0.209301     0.11  
C3       C      0.0175994    0.893401     0.209301     0.11  
C3       C      0.0175994    0.3934       0.7093       0.11  
C3       C      0.5176       0.893401     0.7093       0.11  
C1       C      0.4995       0.3019       0.1396       0.848 
C1       C      0.999499     0.8019       0.1396       0.848 
C1       C      0.999499     0.3019       0.6396       0.848 
C1       C      0.4995       0.8019       0.6396       0.848 
H1       H      0.617893     0.431991     0.179433     0.1   
H1       H      0.117892     0.931992     0.179433     0.1   
H1       H      0.117892     0.431991     0.679432     0.1   
H1       H      0.617893     0.931992     0.679432     0.1   
H1       H      0.600954     0.416675     0.233061     0.1   
H1       H      0.100955     0.916676     0.233061     0.1   
H1       H      0.100955     0.416675     0.733061     0.1   
H1       H      0.600954     0.916676     0.733061     0.1   
H1       H      0.677804     0.332232     0.113286     0.1   
H1       H      0.177804     0.832231     0.113286     0.1   
H1       H      0.177804     0.332232     0.613287     0.1   
H1       H      0.677804     0.832231     0.613287     0.1   
H1       H      0.689624     0.304813     0.0600104    0.1   
H1       H      0.189623     0.804812     0.0600104    0.1   
H1       H      0.189623     0.304813     0.560011     0.1   
H1       H      0.689624     0.804812     0.560011     0.1   
H1       H      0.69422      0.373888     0.12526      0.1   
H1       H      0.194221     0.873888     0.12526      0.1   
H1       H      0.194221     0.373888     0.625261     0.1   
H1       H      0.69422      0.873888     0.625261     0.1   
H1       H      0.0907295    0.0121733    0.194082     0.1   
H1       H      0.59073      0.512173     0.194082     0.1   
H1       H      0.59073      0.0121733    0.694082     0.1   
H1       H      0.0907295    0.512173     0.694082     0.1   
H1       H      0.510071     0.40084      0.199148     0.1   
H1       H      0.0100719    0.900839     0.199148     0.1   
H1       H      0.0100719    0.40084      0.699147     0.1   
H1       H      0.510071     0.900839     0.699147     0.1   
Cr1      Cr     0.695199     0.453399     0.0226004    1.859 
Cr1      Cr     0.1952       0.9534       0.0226004    1.859 
Cr1      Cr     0.1952       0.453399     0.5226       1.859 
Cr1      Cr     0.695199     0.9534       0.5226       1.859 
Cr2      Cr     0.736401     0.339999     0.1197       1.62  
Cr2      Cr     0.2364       0.84         0.1197       1.62  
Cr2      Cr     0.2364       0.339999     0.619701     1.62  
Cr2      Cr     0.736401     0.84         0.619701     1.62  
O3       O      0.154299     0.0437003    0.0671004   -0.587 
O3       O      0.6543       0.5437       0.0671004   -0.587 
O3       O      0.6543       0.0437003    0.5671      -0.587 
O3       O      0.154299     0.5437       0.5671      -0.587 
O3       O      0.1347       0.0650004    0.0855996   -0.587 
O3       O      0.634699     0.565        0.0855996   -0.587 
O3       O      0.634699     0.0650004    0.5856      -0.587 
O3       O      0.1347       0.565        0.5856      -0.587 
O2       O      0.651699     0.4115       0.1265      -0.731 
O2       O      0.1517       0.911499     0.1265      -0.731 
O2       O      0.1517       0.4115       0.6265      -0.731 
O2       O      0.651699     0.911499     0.6265      -0.731 
O2       O      0.6216       0.3487       0.1499      -0.731 
O2       O      0.1216       0.8487       0.1499      -0.731 
O2       O      0.1216       0.3487       0.6499      -0.731 
O2       O      0.6216       0.8487       0.6499      -0.731 
O2       O      0.6596       0.3839       0.1346      -0.731 
O2       O      0.159599     0.883899     0.1346      -0.731 
O2       O      0.159599     0.3839       0.634601    -0.731 
O2       O      0.6596       0.883899     0.634601    -0.731 
O2       O      0.6736       0.4823       0.0509      -0.731 
O2       O      0.1736       0.9823       0.0509      -0.731 
O2       O      0.1736       0.4823       0.550899    -0.731 
O2       O      0.6736       0.9823       0.550899    -0.731 
O2       O      0.6886       0.448099     0.0891      -0.731 
O2       O      0.1886       0.9481       0.0891      -0.731 
O2       O      0.1886       0.448099     0.589099    -0.731 
O2       O      0.6886       0.9481       0.589099    -0.731 
O2       O      0.6776       0.473401     0.0219997   -0.731 
O2       O      0.177601     0.9734       0.0219997   -0.731 
O2       O      0.177601     0.473401     0.522       -0.731 
O2       O      0.6776       0.9734       0.522       -0.731 
O2       O      0.2777       0.0121006    0.0342003   -0.731 
O2       O      0.777701     0.5121       0.0342003   -0.731 
O2       O      0.777701     0.0121006    0.5342      -0.731 
O2       O      0.2777       0.5121       0.5342      -0.731 
O2       O      0.7038       0.4302       0.0247004   -0.731 
O2       O      0.2038       0.9302       0.0247004   -0.731 
O2       O      0.2038       0.4302       0.5247      -0.731 
O2       O      0.7038       0.9302       0.5247      -0.731 
O3       O      0.715299     0.440501     0.0760997   -0.587 
O3       O      0.2153       0.9405       0.0760997   -0.587 
O3       O      0.2153       0.440501     0.5761      -0.587 
O3       O      0.715299     0.9405       0.5761      -0.587 
O2       O      0.751301     0.3033       0.0916005   -0.731 
O2       O      0.2513       0.803301     0.0916005   -0.731 
O2       O      0.2513       0.3033       0.5916      -0.731 
O2       O      0.751301     0.803301     0.5916      -0.731 
O2       O      0.5802       0.3203       0.2226      -0.731 
O2       O      0.0801995    0.820299     0.2226      -0.731 
O2       O      0.0801995    0.3203       0.722601    -0.731 
O2       O      0.5802       0.820299     0.722601    -0.731 
O3       O      0.7401       0.313399     0.1188      -0.587 
O3       O      0.240101     0.8134       0.1188      -0.587 
O3       O      0.240101     0.313399     0.618799    -0.587 
O3       O      0.7401       0.8134       0.618799    -0.587 
O3       O      0.609299     0.329201     0.2118      -0.587 
O3       O      0.1093       0.8292       0.2118      -0.587 
O3       O      0.1093       0.329201     0.7118      -0.587 
O3       O      0.609299     0.8292       0.7118      -0.587 
O3       O      0.725        0.3634       0.1184      -0.587 
O3       O      0.225        0.8634       0.1184      -0.587 
O3       O      0.225        0.3634       0.6184      -0.587 
O3       O      0.725        0.8634       0.6184      -0.587 
O2       O      0.7432       0.3816       0.1015      -0.731 
O2       O      0.2432       0.8816       0.1015      -0.731 
O2       O      0.2432       0.3816       0.6015      -0.731 
O2       O      0.7432       0.8816       0.6015      -0.731 
F1       F      0.7257       0.334501     0.142501    -0.566 
F1       F      0.2257       0.8345       0.142501    -0.566 
F1       F      0.2257       0.334501     0.6425      -0.566 
F1       F      0.7257       0.8345       0.6425      -0.566 
C3       C      0.5989       0.3317       0.175        0.11  
C3       C      0.0989004    0.8317       0.175        0.11  
C3       C      0.0989004    0.3317       0.674999     0.11  
C3       C      0.5989       0.8317       0.674999     0.11  
C2       C      0.5856       0.320899     0.1884      -0.274 
C2       C      0.0855996    0.8209       0.1884      -0.274 
C2       C      0.0855996    0.320899     0.6884      -0.274 
C2       C      0.5856       0.8209       0.6884      -0.274 
C1       C      0.592299     0.3221       0.208499     0.848 
C1       C      0.0923001    0.8221       0.208499     0.848 
C1       C      0.0923001    0.3221       0.7085       0.848 
C1       C      0.592299     0.8221       0.7085       0.848 
C3       C      0.16         0.0161003    0.0408007    0.11  
C3       C      0.660001     0.5161       0.0408007    0.11  
C3       C      0.660001     0.0161003    0.5408       0.11  
C3       C      0.16         0.5161       0.5408       0.11  
C2       C      0.1634       0.00260062   0.0274999   -0.274 
C2       C      0.663399     0.5026       0.0274999   -0.274 
C2       C      0.663399     0.00260062   0.527501    -0.274 
C2       C      0.1634       0.5026       0.527501    -0.274 
C1       C      0.6724       0.486299     0.0337998    0.848 
C1       C      0.172399     0.9863       0.0337998    0.848 
C1       C      0.172399     0.486299     0.533801     0.848 
C1       C      0.6724       0.9863       0.533801     0.848 
C2       C      0.7031       0.422599     0.1019      -0.274 
C2       C      0.203099     0.9226       0.1019      -0.274 
C2       C      0.203099     0.422599     0.601899    -0.274 
C2       C      0.7031       0.9226       0.601899    -0.274 
C3       C      0.7189       0.4115       0.1051       0.11  
C3       C      0.218901     0.911499     0.1051       0.11  
C3       C      0.218901     0.4115       0.605099     0.11  
C3       C      0.7189       0.911499     0.605099     0.11  
C2       C      0.7156       0.3934       0.113901    -0.274 
C2       C      0.2156       0.893401     0.113901    -0.274 
C2       C      0.2156       0.3934       0.6139      -0.274 
C2       C      0.7156       0.893401     0.6139      -0.274 
C3       C      0.697101     0.3884       0.1202       0.11  
C3       C      0.1971       0.8884       0.1202       0.11  
C3       C      0.1971       0.3884       0.6202       0.11  
C3       C      0.697101     0.8884       0.6202       0.11  
C2       C      0.682499     0.4022       0.1199      -0.274 
C2       C      0.1825       0.9022       0.1199      -0.274 
C2       C      0.1825       0.4022       0.619899    -0.274 
C2       C      0.682499     0.9022       0.619899    -0.274 
C3       C      0.6873       0.4203       0.1138       0.11  
C3       C      0.187299     0.9203       0.1138       0.11  
C3       C      0.187299     0.4203       0.6138       0.11  
C3       C      0.6873       0.9203       0.6138       0.11  
C1       C      0.6637       0.3987       0.127        0.848 
C1       C      0.163701     0.898701     0.127        0.848 
C1       C      0.163701     0.3987       0.627        0.848 
C1       C      0.6637       0.898701     0.627        0.848 
C1       C      0.7283       0.3785       0.110801     0.848 
C1       C      0.2283       0.878501     0.110801     0.848 
C1       C      0.2283       0.3785       0.6108       0.848 
C1       C      0.7283       0.878501     0.6108       0.848 
C1       C      0.7024       0.437301     0.0885994    0.848 
C1       C      0.2024       0.9373       0.0885994    0.848 
C1       C      0.2024       0.437301     0.5886       0.848 
C1       C      0.7024       0.9373       0.5886       0.848 
C2       C      0.7347       0.3712       0.0390998   -0.274 
C2       C      0.2347       0.871199     0.0390998   -0.274 
C2       C      0.2347       0.3712       0.539101    -0.274 
C2       C      0.7347       0.871199     0.539101    -0.274 
C3       C      0.7324       0.3934       0.0407005    0.11  
C3       C      0.2324       0.893401     0.0407005    0.11  
C3       C      0.2324       0.3934       0.5407       0.11  
C3       C      0.7324       0.893401     0.5407       0.11  
C1       C      0.7505       0.3019       0.1104       0.848 
C1       C      0.2505       0.8019       0.1104       0.848 
C1       C      0.2505       0.3019       0.610399     0.848 
C1       C      0.7505       0.8019       0.610399     0.848 
H1       H      0.632108     0.431991     0.0705665    0.1   
H1       H      0.132108     0.931992     0.0705665    0.1   
H1       H      0.132108     0.431991     0.570567     0.1   
H1       H      0.632108     0.931992     0.570567     0.1   
H1       H      0.649045     0.416675     0.0169397    0.1   
H1       H      0.149046     0.916676     0.0169397    0.1   
H1       H      0.149046     0.416675     0.516939     0.1   
H1       H      0.649045     0.916676     0.516939     0.1   
H1       H      0.572197     0.332232     0.136714     0.1   
H1       H      0.072196     0.832231     0.136714     0.1   
H1       H      0.072196     0.332232     0.636714     0.1   
H1       H      0.572197     0.832231     0.636714     0.1   
H1       H      0.560376     0.304813     0.189989     0.1   
H1       H      0.0603766    0.804812     0.189989     0.1   
H1       H      0.0603766    0.304813     0.689989     0.1   
H1       H      0.560376     0.804812     0.689989     0.1   
H1       H      0.55578      0.373888     0.124739     0.1   
H1       H      0.0557803    0.873888     0.124739     0.1   
H1       H      0.0557803    0.373888     0.62474      0.1   
H1       H      0.55578      0.873888     0.62474      0.1   
H1       H      0.15927      0.0121733    0.0559174    0.1   
H1       H      0.659271     0.512173     0.0559174    0.1   
H1       H      0.659271     0.0121733    0.555918     0.1   
H1       H      0.15927      0.512173     0.555918     0.1   
H1       H      0.739928     0.40084      0.050852     0.1   
H1       H      0.239929     0.900839     0.050852     0.1   
H1       H      0.239929     0.40084      0.550853     0.1   
H1       H      0.739928     0.900839     0.550853     0.1   
Cr2      Cr     0.0547996    0.2966       0.0226004    1.62  
Cr2      Cr     0.5548       0.7966       0.0226004    1.62  
Cr2      Cr     0.5548       0.2966       0.5226       1.62  
Cr2      Cr     0.0547996    0.7966       0.5226       1.62  
Cr1      Cr     0.0135998    0.409999     0.1197       1.859 
Cr1      Cr     0.5136       0.91         0.1197       1.859 
Cr1      Cr     0.5136       0.409999     0.619701     1.859 
Cr1      Cr     0.0135998    0.91         0.619701     1.859 
O3       O      0.0957003    0.206299     0.0671004   -0.587 
O3       O      0.5957       0.7063       0.0671004   -0.587 
O3       O      0.5957       0.206299     0.5671      -0.587 
O3       O      0.0957003    0.7063       0.5671      -0.587 
O3       O      0.1153       0.185001     0.0855996   -0.587 
O3       O      0.6153       0.685        0.0855996   -0.587 
O3       O      0.6153       0.185001     0.5856      -0.587 
O3       O      0.1153       0.685        0.5856      -0.587 
O2       O      0.0982996    0.3385       0.1265      -0.731 
O2       O      0.5983       0.8385       0.1265      -0.731 
O2       O      0.5983       0.3385       0.6265      -0.731 
O2       O      0.0982996    0.8385       0.6265      -0.731 
O3       O      0.1284       0.401301     0.1499      -0.587 
O3       O      0.628399     0.9013       0.1499      -0.587 
O3       O      0.628399     0.401301     0.6499      -0.587 
O3       O      0.1284       0.9013       0.6499      -0.587 
O3       O      0.0904003    0.3661       0.1346      -0.587 
O3       O      0.5904       0.8661       0.1346      -0.587 
O3       O      0.5904       0.3661       0.634601    -0.587 
O3       O      0.0904003    0.8661       0.634601    -0.587 
O2       O      0.0764001    0.267701     0.0509      -0.731 
O2       O      0.576399     0.7677       0.0509      -0.731 
O2       O      0.576399     0.267701     0.550899    -0.731 
O2       O      0.0764001    0.7677       0.550899    -0.731 
O2       O      0.0613999    0.3019       0.0891      -0.731 
O2       O      0.561401     0.8019       0.0891      -0.731 
O2       O      0.561401     0.3019       0.589099    -0.731 
O2       O      0.0613999    0.8019       0.589099    -0.731 
O3       O      0.0724004    0.2766       0.0219997   -0.587 
O3       O      0.5724       0.7766       0.0219997   -0.587 
O3       O      0.5724       0.2766       0.522       -0.587 
O3       O      0.0724004    0.7766       0.522       -0.587 
O3       O      0.9723       0.2379       0.0342003   -0.587 
O3       O      0.472301     0.7379       0.0342003   -0.587 
O3       O      0.472301     0.2379       0.5342      -0.587 
O3       O      0.9723       0.7379       0.5342      -0.587 
O3       O      0.0461994    0.319799     0.0247004   -0.587 
O3       O      0.5462       0.8198       0.0247004   -0.587 
O3       O      0.5462       0.319799     0.5247      -0.587 
O3       O      0.0461994    0.8198       0.5247      -0.587 
O2       O      0.0346996    0.3095       0.0760997   -0.731 
O2       O      0.5347       0.8095       0.0760997   -0.731 
O2       O      0.5347       0.3095       0.5761      -0.731 
O2       O      0.0346996    0.8095       0.5761      -0.731 
O2       O      0.9987       0.4467       0.0916005   -0.731 
O2       O      0.4987       0.9467       0.0916005   -0.731 
O2       O      0.4987       0.4467       0.5916      -0.731 
O2       O      0.9987       0.9467       0.5916      -0.731 
O2       O      0.1698       0.4297       0.2226      -0.731 
O2       O      0.669799     0.9297       0.2226      -0.731 
O2       O      0.669799     0.4297       0.722601    -0.731 
O2       O      0.1698       0.9297       0.722601    -0.731 
O2       O      0.00990046   0.4366       0.1188      -0.731 
O2       O      0.5099       0.9366       0.1188      -0.731 
O2       O      0.5099       0.4366       0.618799    -0.731 
O2       O      0.00990046   0.9366       0.618799    -0.731 
O2       O      0.1407       0.4208       0.2118      -0.731 
O2       O      0.6407       0.9208       0.2118      -0.731 
O2       O      0.6407       0.4208       0.7118      -0.731 
O2       O      0.1407       0.9208       0.7118      -0.731 
O2       O      0.0249994    0.386599     0.1184      -0.731 
O2       O      0.525        0.8866       0.1184      -0.731 
O2       O      0.525        0.386599     0.6184      -0.731 
O2       O      0.0249994    0.8866       0.6184      -0.731 
O3       O      0.00680057   0.368401     0.1015      -0.587 
O3       O      0.5068       0.8684       0.1015      -0.587 
O3       O      0.5068       0.368401     0.6015      -0.587 
O3       O      0.00680057   0.8684       0.6015      -0.587 
F1       F      0.5652       0.301699     0.4986      -0.566 
F1       F      0.0652007    0.8017       0.4986      -0.566 
F1       F      0.0652007    0.301699     0.9986      -0.566 
F1       F      0.5652       0.8017       0.9986      -0.566 
C3       C      0.151101     0.418301     0.175        0.11  
C3       C      0.6511       0.9183       0.175        0.11  
C3       C      0.6511       0.418301     0.674999     0.11  
C3       C      0.151101     0.9183       0.674999     0.11  
C2       C      0.1644       0.4291       0.1884      -0.274 
C2       C      0.664399     0.9291       0.1884      -0.274 
C2       C      0.664399     0.4291       0.6884      -0.274 
C2       C      0.1644       0.9291       0.6884      -0.274 
C1       C      0.1577       0.427901     0.208499     0.848 
C1       C      0.6577       0.9279       0.208499     0.848 
C1       C      0.6577       0.427901     0.7085       0.848 
C1       C      0.1577       0.9279       0.7085       0.848 
C3       C      0.0899998    0.233899     0.0408007    0.11  
C3       C      0.590001     0.7339       0.0408007    0.11  
C3       C      0.590001     0.233899     0.5408       0.11  
C3       C      0.0899998    0.7339       0.5408       0.11  
C2       C      0.0865995    0.2474       0.0274999   -0.274 
C2       C      0.5866       0.7474       0.0274999   -0.274 
C2       C      0.5866       0.2474       0.527501    -0.274 
C2       C      0.0865995    0.7474       0.527501    -0.274 
C1       C      0.0776002    0.2637       0.0337998    0.848 
C1       C      0.5776       0.7637       0.0337998    0.848 
C1       C      0.5776       0.2637       0.533801     0.848 
C1       C      0.0776002    0.7637       0.533801     0.848 
C2       C      0.0469003    0.3274       0.1019      -0.274 
C2       C      0.5469       0.8274       0.1019      -0.274 
C2       C      0.5469       0.3274       0.601899    -0.274 
C2       C      0.0469003    0.8274       0.601899    -0.274 
C3       C      0.0311004    0.3385       0.1051       0.11  
C3       C      0.5311       0.8385       0.1051       0.11  
C3       C      0.5311       0.3385       0.605099     0.11  
C3       C      0.0311004    0.8385       0.605099     0.11  
C2       C      0.0344006    0.3566       0.113901    -0.274 
C2       C      0.5344       0.8566       0.113901    -0.274 
C2       C      0.5344       0.3566       0.6139      -0.274 
C2       C      0.0344006    0.8566       0.6139      -0.274 
C3       C      0.0528998    0.3616       0.1202       0.11  
C3       C      0.552901     0.861601     0.1202       0.11  
C3       C      0.552901     0.3616       0.6202       0.11  
C3       C      0.0528998    0.861601     0.6202       0.11  
C2       C      0.0674995    0.3478       0.1199      -0.274 
C2       C      0.5675       0.847801     0.1199      -0.274 
C2       C      0.5675       0.3478       0.619899    -0.274 
C2       C      0.0674995    0.847801     0.619899    -0.274 
C3       C      0.0627002    0.3297       0.1138       0.11  
C3       C      0.562699     0.829701     0.1138       0.11  
C3       C      0.562699     0.3297       0.6138       0.11  
C3       C      0.0627002    0.829701     0.6138       0.11  
C1       C      0.0863005    0.3513       0.127        0.848 
C1       C      0.5863       0.8513       0.127        0.848 
C1       C      0.5863       0.3513       0.627        0.848 
C1       C      0.0863005    0.8513       0.627        0.848 
C1       C      0.0217006    0.3715       0.110801     0.848 
C1       C      0.5217       0.8715       0.110801     0.848 
C1       C      0.5217       0.3715       0.6108       0.848 
C1       C      0.0217006    0.8715       0.6108       0.848 
C1       C      0.0475998    0.3127       0.0885994    0.848 
C1       C      0.547601     0.812701     0.0885994    0.848 
C1       C      0.547601     0.3127       0.5886       0.848 
C1       C      0.0475998    0.812701     0.5886       0.848 
C2       C      0.0153006    0.3788       0.0390998   -0.274 
C2       C      0.5153       0.8788       0.0390998   -0.274 
C2       C      0.5153       0.3788       0.539101    -0.274 
C2       C      0.0153006    0.8788       0.539101    -0.274 
C3       C      0.0175994    0.3566       0.0407005    0.11  
C3       C      0.5176       0.8566       0.0407005    0.11  
C3       C      0.5176       0.3566       0.5407       0.11  
C3       C      0.0175994    0.8566       0.5407       0.11  
C1       C      0.999499     0.448099     0.1104       0.848 
C1       C      0.4995       0.9481       0.1104       0.848 
C1       C      0.4995       0.448099     0.610399     0.848 
C1       C      0.999499     0.9481       0.610399     0.848 
H1       H      0.117892     0.318008     0.0705665    0.1   
H1       H      0.617893     0.818009     0.0705665    0.1   
H1       H      0.617893     0.318008     0.570567     0.1   
H1       H      0.117892     0.818009     0.570567     0.1   
H1       H      0.100955     0.333324     0.0169397    0.1   
H1       H      0.600954     0.833324     0.0169397    0.1   
H1       H      0.600954     0.333324     0.516939     0.1   
H1       H      0.100955     0.833324     0.516939     0.1   
H1       H      0.0619677    0.146176     0.145517     0.1   
H1       H      0.561968     0.646177     0.145517     0.1   
H1       H      0.561968     0.146176     0.645516     0.1   
H1       H      0.0619677    0.646177     0.645516     0.1   
H1       H      0.177804     0.417768     0.136714     0.1   
H1       H      0.677804     0.917769     0.136714     0.1   
H1       H      0.677804     0.417768     0.636714     0.1   
H1       H      0.177804     0.917769     0.636714     0.1   
H1       H      0.194221     0.376112     0.124739     0.1   
H1       H      0.69422      0.876113     0.124739     0.1   
H1       H      0.69422      0.376112     0.62474      0.1   
H1       H      0.194221     0.876113     0.62474      0.1   
H1       H      0.0907295    0.237828     0.0559174    0.1   
H1       H      0.59073      0.737827     0.0559174    0.1   
H1       H      0.59073      0.237828     0.555918     0.1   
H1       H      0.0907295    0.737827     0.555918     0.1   
H1       H      0.0100719    0.349161     0.050852     0.1   
H1       H      0.510071     0.84916      0.050852     0.1   
H1       H      0.510071     0.349161     0.550853     0.1   
H1       H      0.0100719    0.84916      0.550853     0.1   
Cr1      Cr     0.1952       0.2966       0.227401     1.859 
Cr1      Cr     0.695199     0.7966       0.227401     1.859 
Cr1      Cr     0.695199     0.2966       0.7274       1.859 
Cr1      Cr     0.1952       0.7966       0.7274       1.859 
Cr1      Cr     0.2364       0.409999     0.1303       1.859 
Cr1      Cr     0.736401     0.91         0.1303       1.859 
Cr1      Cr     0.736401     0.409999     0.630301     1.859 
Cr1      Cr     0.2364       0.91         0.630301     1.859 
O2       O      0.154299     0.206299     0.182901    -0.731 
O2       O      0.6543       0.7063       0.182901    -0.731 
O2       O      0.6543       0.206299     0.6829      -0.731 
O2       O      0.154299     0.7063       0.6829      -0.731 
O2       O      0.1347       0.185001     0.1644      -0.731 
O2       O      0.634699     0.685        0.1644      -0.731 
O2       O      0.634699     0.185001     0.664399    -0.731 
O2       O      0.1347       0.685        0.664399    -0.731 
O2       O      0.1517       0.3385       0.123501    -0.731 
O2       O      0.651699     0.8385       0.123501    -0.731 
O2       O      0.651699     0.3385       0.6235      -0.731 
O2       O      0.1517       0.8385       0.6235      -0.731 
O2       O      0.1216       0.401301     0.100101    -0.731 
O2       O      0.6216       0.9013       0.100101    -0.731 
O2       O      0.6216       0.401301     0.6001      -0.731 
O2       O      0.1216       0.9013       0.6001      -0.731 
O2       O      0.159599     0.3661       0.1154      -0.731 
O2       O      0.6596       0.8661       0.1154      -0.731 
O2       O      0.6596       0.3661       0.6154      -0.731 
O2       O      0.159599     0.8661       0.6154      -0.731 
O2       O      0.1736       0.267701     0.1991      -0.731 
O2       O      0.6736       0.7677       0.1991      -0.731 
O2       O      0.6736       0.267701     0.6991      -0.731 
O2       O      0.1736       0.7677       0.6991      -0.731 
O2       O      0.1886       0.3019       0.1609      -0.731 
O2       O      0.6886       0.8019       0.1609      -0.731 
O2       O      0.6886       0.3019       0.6609      -0.731 
O2       O      0.1886       0.8019       0.6609      -0.731 
O2       O      0.177601     0.2766       0.228       -0.731 
O2       O      0.6776       0.7766       0.228       -0.731 
O2       O      0.6776       0.2766       0.728001    -0.731 
O2       O      0.177601     0.7766       0.728001    -0.731 
O2       O      0.2777       0.2379       0.215799    -0.731 
O2       O      0.777701     0.7379       0.215799    -0.731 
O2       O      0.777701     0.2379       0.7158      -0.731 
O2       O      0.2777       0.7379       0.7158      -0.731 
O2       O      0.2038       0.319799     0.225301    -0.731 
O2       O      0.7038       0.8198       0.225301    -0.731 
O2       O      0.7038       0.319799     0.7253      -0.731 
O2       O      0.2038       0.8198       0.7253      -0.731 
O3       O      0.2153       0.3095       0.1739      -0.587 
O3       O      0.715299     0.8095       0.1739      -0.587 
O3       O      0.715299     0.3095       0.673901    -0.587 
O3       O      0.2153       0.8095       0.673901    -0.587 
O3       O      0.2513       0.4467       0.158401    -0.587 
O3       O      0.751301     0.9467       0.158401    -0.587 
O3       O      0.751301     0.4467       0.6584      -0.587 
O3       O      0.2513       0.9467       0.6584      -0.587 
O3       O      0.0801995    0.4297       0.0273998   -0.587 
O3       O      0.5802       0.9297       0.0273998   -0.587 
O3       O      0.5802       0.4297       0.5274      -0.587 
O3       O      0.0801995    0.9297       0.5274      -0.587 
O2       O      0.240101     0.4366       0.1312      -0.731 
O2       O      0.7401       0.9366       0.1312      -0.731 
O2       O      0.7401       0.4366       0.6312      -0.731 
O2       O      0.240101     0.9366       0.6312      -0.731 
O2       O      0.1093       0.4208       0.0382      -0.731 
O2       O      0.609299     0.9208       0.0382      -0.731 
O2       O      0.609299     0.4208       0.538199    -0.731 
O2       O      0.1093       0.9208       0.538199    -0.731 
O2       O      0.225        0.386599     0.1316      -0.731 
O2       O      0.725        0.8866       0.1316      -0.731 
O2       O      0.725        0.386599     0.631599    -0.731 
O2       O      0.225        0.8866       0.631599    -0.731 
O2       O      0.2432       0.368401     0.1485      -0.731 
O2       O      0.7432       0.8684       0.1485      -0.731 
O2       O      0.7432       0.368401     0.648499    -0.731 
O2       O      0.2432       0.8684       0.648499    -0.731 
C3       C      0.0989004    0.418301     0.0749996    0.11  
C3       C      0.5989       0.9183       0.0749996    0.11  
C3       C      0.5989       0.418301     0.575        0.11  
C3       C      0.0989004    0.9183       0.575        0.11  
C2       C      0.0855996    0.4291       0.0616001   -0.274 
C2       C      0.5856       0.9291       0.0616001   -0.274 
C2       C      0.5856       0.4291       0.561599    -0.274 
C2       C      0.0855996    0.9291       0.561599    -0.274 
C1       C      0.0923001    0.427901     0.0415002    0.848 
C1       C      0.592299     0.9279       0.0415002    0.848 
C1       C      0.592299     0.427901     0.541499     0.848 
C1       C      0.0923001    0.9279       0.541499     0.848 
C3       C      0.16         0.233899     0.2092       0.11  
C3       C      0.660001     0.7339       0.2092       0.11  
C3       C      0.660001     0.233899     0.7092       0.11  
C3       C      0.16         0.7339       0.7092       0.11  
C2       C      0.1634       0.2474       0.2225      -0.274 
C2       C      0.663399     0.7474       0.2225      -0.274 
C2       C      0.663399     0.2474       0.7225      -0.274 
C2       C      0.1634       0.7474       0.7225      -0.274 
C1       C      0.172399     0.2637       0.2162       0.848 
C1       C      0.6724       0.7637       0.2162       0.848 
C1       C      0.6724       0.2637       0.716201     0.848 
C1       C      0.172399     0.7637       0.716201     0.848 
C2       C      0.203099     0.3274       0.1481      -0.274 
C2       C      0.7031       0.8274       0.1481      -0.274 
C2       C      0.7031       0.3274       0.6481      -0.274 
C2       C      0.203099     0.8274       0.6481      -0.274 
C3       C      0.218901     0.3385       0.1449       0.11  
C3       C      0.7189       0.8385       0.1449       0.11  
C3       C      0.7189       0.3385       0.6449       0.11  
C3       C      0.218901     0.8385       0.6449       0.11  
C2       C      0.2156       0.3566       0.1361      -0.274 
C2       C      0.7156       0.8566       0.1361      -0.274 
C2       C      0.7156       0.3566       0.6361      -0.274 
C2       C      0.2156       0.8566       0.6361      -0.274 
C3       C      0.1971       0.3616       0.129801     0.11  
C3       C      0.697101     0.861601     0.129801     0.11  
C3       C      0.697101     0.3616       0.6298       0.11  
C3       C      0.1971       0.861601     0.6298       0.11  
C2       C      0.1825       0.3478       0.1301      -0.274 
C2       C      0.682499     0.847801     0.1301      -0.274 
C2       C      0.682499     0.3478       0.6301      -0.274 
C2       C      0.1825       0.847801     0.6301      -0.274 
C3       C      0.187299     0.3297       0.136201     0.11  
C3       C      0.6873       0.829701     0.136201     0.11  
C3       C      0.6873       0.3297       0.6362       0.11  
C3       C      0.187299     0.829701     0.6362       0.11  
C1       C      0.163701     0.3513       0.123        0.848 
C1       C      0.6637       0.8513       0.123        0.848 
C1       C      0.6637       0.3513       0.622999     0.848 
C1       C      0.163701     0.8513       0.622999     0.848 
C1       C      0.2283       0.3715       0.1392       0.848 
C1       C      0.7283       0.8715       0.1392       0.848 
C1       C      0.7283       0.3715       0.6392       0.848 
C1       C      0.2283       0.8715       0.6392       0.848 
C1       C      0.2024       0.3127       0.1614       0.848 
C1       C      0.7024       0.812701     0.1614       0.848 
C1       C      0.7024       0.3127       0.6614       0.848 
C1       C      0.2024       0.812701     0.6614       0.848 
C2       C      0.2347       0.3788       0.2109      -0.274 
C2       C      0.7347       0.8788       0.2109      -0.274 
C2       C      0.7347       0.3788       0.710901    -0.274 
C2       C      0.2347       0.8788       0.710901    -0.274 
C3       C      0.2324       0.3566       0.209301     0.11  
C3       C      0.7324       0.8566       0.209301     0.11  
C3       C      0.7324       0.3566       0.7093       0.11  
C3       C      0.2324       0.8566       0.7093       0.11  
C1       C      0.2505       0.448099     0.1396       0.848 
C1       C      0.7505       0.9481       0.1396       0.848 
C1       C      0.7505       0.448099     0.6396       0.848 
C1       C      0.2505       0.9481       0.6396       0.848 
H1       H      0.132108     0.318008     0.179433     0.1   
H1       H      0.632108     0.818009     0.179433     0.1   
H1       H      0.632108     0.318008     0.679432     0.1   
H1       H      0.132108     0.818009     0.679432     0.1   
H1       H      0.149046     0.333324     0.233061     0.1   
H1       H      0.649045     0.833324     0.233061     0.1   
H1       H      0.649045     0.333324     0.733061     0.1   
H1       H      0.149046     0.833324     0.733061     0.1   
H1       H      0.188032     0.146176     0.104484     0.1   
H1       H      0.688031     0.646177     0.104484     0.1   
H1       H      0.688031     0.146176     0.604484     0.1   
H1       H      0.188032     0.646177     0.604484     0.1   
H1       H      0.072196     0.417768     0.113286     0.1   
H1       H      0.572197     0.917769     0.113286     0.1   
H1       H      0.572197     0.417768     0.613287     0.1   
H1       H      0.072196     0.917769     0.613287     0.1   
H1       H      0.0557803    0.376112     0.12526      0.1   
H1       H      0.55578      0.876113     0.12526      0.1   
H1       H      0.55578      0.376112     0.625261     0.1   
H1       H      0.0557803    0.876113     0.625261     0.1   
H1       H      0.15927      0.237828     0.194082     0.1   
H1       H      0.659271     0.737827     0.194082     0.1   
H1       H      0.659271     0.237828     0.694082     0.1   
H1       H      0.15927      0.737827     0.694082     0.1   
H1       H      0.239929     0.349161     0.199148     0.1   
H1       H      0.739928     0.84916      0.199148     0.1   
H1       H      0.739928     0.349161     0.699147     0.1   
H1       H      0.239929     0.84916      0.699147     0.1   
Cr2      Cr     0.304801     0.4774       0.0465999    1.62  
Cr2      Cr     0.8048       0.9774       0.0465999    1.62  
Cr2      Cr     0.8048       0.4774       0.546601     1.62  
Cr2      Cr     0.304801     0.9774       0.546601     1.62  
Cr1      Cr     0.263599     0.380299     0.16         1.859 
Cr1      Cr     0.7636       0.8803       0.16         1.859 
Cr1      Cr     0.7636       0.380299     0.660001     1.859 
Cr1      Cr     0.263599     0.8803       0.660001     1.859 
O2       O      0.845699     0.4329       0.4563      -0.731 
O2       O      0.3457       0.9329       0.4563      -0.731 
O2       O      0.3457       0.4329       0.9563      -0.731 
O2       O      0.845699     0.9329       0.9563      -0.731 
O2       O      0.8653       0.4144       0.435       -0.731 
O2       O      0.365301     0.9144       0.435       -0.731 
O2       O      0.365301     0.4144       0.935       -0.731 
O2       O      0.8653       0.9144       0.935       -0.731 
O3       O      0.348301     0.3735       0.0885006   -0.587 
O3       O      0.8483       0.8735       0.0885006   -0.587 
O3       O      0.8483       0.3735       0.5885      -0.587 
O3       O      0.348301     0.8735       0.5885      -0.587 
O2       O      0.3784       0.3501       0.1513      -0.731 
O2       O      0.8784       0.8501       0.1513      -0.731 
O2       O      0.8784       0.3501       0.6513      -0.731 
O2       O      0.3784       0.8501       0.6513      -0.731 
O2       O      0.3404       0.365399     0.116101    -0.731 
O2       O      0.840401     0.8654       0.116101    -0.731 
O2       O      0.840401     0.365399     0.6161      -0.731 
O2       O      0.3404       0.8654       0.6161      -0.731 
O2       O      0.3264       0.449101     0.0176996   -0.731 
O2       O      0.8264       0.9491       0.0176996   -0.731 
O2       O      0.8264       0.449101     0.5177      -0.731 
O2       O      0.3264       0.9491       0.5177      -0.731 
O2       O      0.3114       0.410901     0.0518999   -0.731 
O2       O      0.8114       0.9109       0.0518999   -0.731 
O2       O      0.8114       0.410901     0.551901    -0.731 
O2       O      0.3114       0.9109       0.551901    -0.731 
O3       O      0.3224       0.478        0.0266001   -0.587 
O3       O      0.822399     0.978        0.0266001   -0.587 
O3       O      0.822399     0.478        0.526599    -0.587 
O3       O      0.3224       0.978        0.526599    -0.587 
O3       O      0.7223       0.4658       0.4879      -0.587 
O3       O      0.222299     0.9658       0.4879      -0.587 
O3       O      0.222299     0.4658       0.987899    -0.587 
O3       O      0.7223       0.9658       0.987899    -0.587 
O3       O      0.2962       0.4753       0.0697998   -0.587 
O3       O      0.7962       0.9753       0.0697998   -0.587 
O3       O      0.7962       0.4753       0.5698      -0.587 
O3       O      0.2962       0.9753       0.5698      -0.587 
O2       O      0.284701     0.4239       0.0595001   -0.731 
O2       O      0.7847       0.9239       0.0595001   -0.731 
O2       O      0.7847       0.4239       0.559499    -0.731 
O2       O      0.284701     0.9239       0.559499    -0.731 
O3       O      0.248699     0.4084       0.196701    -0.587 
O3       O      0.7487       0.908399     0.196701    -0.587 
O3       O      0.7487       0.4084       0.6967      -0.587 
O3       O      0.248699     0.908399     0.6967      -0.587 
O2       O      0.4198       0.277399     0.179701    -0.731 
O2       O      0.919801     0.7774       0.179701    -0.731 
O2       O      0.919801     0.277399     0.6797      -0.731 
O2       O      0.4198       0.7774       0.6797      -0.731 
O2       O      0.2599       0.381201     0.1866      -0.731 
O2       O      0.759899     0.8812       0.1866      -0.731 
O2       O      0.759899     0.381201     0.686601    -0.731 
O2       O      0.2599       0.8812       0.686601    -0.731 
O3       O      0.390701     0.2882       0.1708      -0.587 
O3       O      0.8907       0.7882       0.1708      -0.587 
O3       O      0.8907       0.2882       0.670799    -0.587 
O3       O      0.390701     0.7882       0.670799    -0.587 
O2       O      0.275        0.3816       0.1366      -0.731 
O2       O      0.775        0.8816       0.1366      -0.731 
O2       O      0.775        0.3816       0.6366      -0.731 
O2       O      0.275        0.8816       0.6366      -0.731 
O2       O      0.2568       0.3985       0.1184      -0.731 
O2       O      0.7568       0.8985       0.1184      -0.731 
O2       O      0.7568       0.3985       0.6184      -0.731 
O2       O      0.2568       0.8985       0.6184      -0.731 
F1       F      0.8152       0.00140044   0.0516997   -0.566 
F1       F      0.3152       0.5014       0.0516997   -0.566 
F1       F      0.3152       0.00140044   0.5517      -0.566 
F1       F      0.8152       0.5014       0.5517      -0.566 
C3       C      0.4011       0.325001     0.1683       0.11  
C3       C      0.9011       0.825        0.1683       0.11  
C3       C      0.9011       0.325001     0.6683       0.11  
C3       C      0.4011       0.825        0.6683       0.11  
C2       C      0.4144       0.3116       0.1791      -0.274 
C2       C      0.9144       0.8116       0.1791      -0.274 
C2       C      0.9144       0.3116       0.679101    -0.274 
C2       C      0.4144       0.8116       0.679101    -0.274 
C1       C      0.407701     0.2915       0.1779       0.848 
C1       C      0.9077       0.791501     0.1779       0.848 
C1       C      0.9077       0.2915       0.6779       0.848 
C1       C      0.407701     0.791501     0.6779       0.848 
C3       C      0.84         0.4592       0.4839       0.11  
C3       C      0.339999     0.959199     0.4839       0.11  
C3       C      0.339999     0.4592       0.9839       0.11  
C3       C      0.84         0.959199     0.9839       0.11  
C2       C      0.8366       0.472499     0.4974      -0.274 
C2       C      0.336601     0.9725       0.4974      -0.274 
C2       C      0.336601     0.472499     0.997399    -0.274 
C2       C      0.8366       0.9725       0.997399    -0.274 
C1       C      0.3276       0.466199     0.0136999    0.848 
C1       C      0.827601     0.9662       0.0136999    0.848 
C1       C      0.827601     0.466199     0.513701     0.848 
C1       C      0.3276       0.9662       0.513701     0.848 
C2       C      0.2969       0.398101     0.0774      -0.274 
C2       C      0.796901     0.8981       0.0774      -0.274 
C2       C      0.796901     0.398101     0.577401    -0.274 
C2       C      0.2969       0.8981       0.577401    -0.274 
C3       C      0.2811       0.394901     0.0885006    0.11  
C3       C      0.781099     0.8949       0.0885006    0.11  
C3       C      0.781099     0.394901     0.5885       0.11  
C3       C      0.2811       0.8949       0.5885       0.11  
C2       C      0.2844       0.3861       0.106599    -0.274 
C2       C      0.7844       0.886099     0.106599    -0.274 
C2       C      0.7844       0.3861       0.6066      -0.274 
C2       C      0.2844       0.886099     0.6066      -0.274 
C3       C      0.302899     0.3798       0.1116       0.11  
C3       C      0.8029       0.8798       0.1116       0.11  
C3       C      0.8029       0.3798       0.6116       0.11  
C3       C      0.302899     0.8798       0.6116       0.11  
C2       C      0.317501     0.380101     0.0978003   -0.274 
C2       C      0.8175       0.8801       0.0978003   -0.274 
C2       C      0.8175       0.380101     0.5978      -0.274 
C2       C      0.317501     0.8801       0.5978      -0.274 
C3       C      0.3127       0.3862       0.0797002    0.11  
C3       C      0.812701     0.8862       0.0797002    0.11  
C3       C      0.812701     0.3862       0.5797       0.11  
C3       C      0.3127       0.8862       0.5797       0.11  
C1       C      0.3363       0.373        0.101299     0.848 
C1       C      0.836299     0.873        0.101299     0.848 
C1       C      0.836299     0.373        0.6013       0.848 
C1       C      0.3363       0.873        0.6013       0.848 
C1       C      0.2717       0.3892       0.121499     0.848 
C1       C      0.7717       0.889201     0.121499     0.848 
C1       C      0.7717       0.3892       0.6215       0.848 
C1       C      0.2717       0.889201     0.6215       0.848 
C1       C      0.2976       0.4114       0.0627002    0.848 
C1       C      0.7976       0.911401     0.0627002    0.848 
C1       C      0.7976       0.4114       0.562699     0.848 
C1       C      0.2976       0.911401     0.562699     0.848 
C2       C      0.2653       0.460899     0.128801    -0.274 
C2       C      0.7653       0.9609       0.128801    -0.274 
C2       C      0.7653       0.460899     0.6288      -0.274 
C2       C      0.2653       0.9609       0.6288      -0.274 
C3       C      0.2676       0.4593       0.106599     0.11  
C3       C      0.7676       0.959299     0.106599     0.11  
C3       C      0.7676       0.4593       0.6066       0.11  
C3       C      0.2676       0.959299     0.6066       0.11  
C1       C      0.2495       0.389601     0.1981       0.848 
C1       C      0.7495       0.8896       0.1981       0.848 
C1       C      0.7495       0.389601     0.6981       0.848 
C1       C      0.2495       0.8896       0.6981       0.848 
H1       H      0.367892     0.429433     0.0680084    0.1   
H1       H      0.867892     0.929434     0.0680084    0.1   
H1       H      0.867892     0.429433     0.568009     0.1   
H1       H      0.367892     0.929434     0.568009     0.1   
H1       H      0.350955     0.483061     0.0833241    0.1   
H1       H      0.850954     0.98306      0.0833241    0.1   
H1       H      0.850954     0.483061     0.583325     0.1   
H1       H      0.350955     0.98306      0.583325     0.1   
H1       H      0.427803     0.363286     0.167769     0.1   
H1       H      0.927804     0.863286     0.167769     0.1   
H1       H      0.927804     0.363286     0.667768     0.1   
H1       H      0.427803     0.863286     0.667768     0.1   
H1       H      0.44422      0.37526      0.126112     0.1   
H1       H      0.94422      0.875261     0.126112     0.1   
H1       H      0.94422      0.37526      0.626112     0.1   
H1       H      0.44422      0.875261     0.626112     0.1   
H1       H      0.84073      0.444082     0.487827     0.1   
H1       H      0.340729     0.944083     0.487827     0.1   
H1       H      0.340729     0.444082     0.987827     0.1   
H1       H      0.84073      0.944083     0.987827     0.1   
H1       H      0.260072     0.449147     0.099161     0.1   
H1       H      0.760071     0.949148     0.099161     0.1   
H1       H      0.760071     0.449147     0.59916      0.1   
H1       H      0.260072     0.949148     0.59916      0.1   
Cr1      Cr     0.4452       0.2726       0.0465999    1.859 
Cr1      Cr     0.9452       0.772599     0.0465999    1.859 
Cr1      Cr     0.9452       0.2726       0.546601     1.859 
Cr1      Cr     0.4452       0.772599     0.546601     1.859 
Cr1      Cr     0.4864       0.369699     0.16         1.859 
Cr1      Cr     0.9864       0.8697       0.16         1.859 
Cr1      Cr     0.9864       0.369699     0.660001     1.859 
Cr1      Cr     0.4864       0.8697       0.660001     1.859 
O2       O      0.9043       0.3171       0.4563      -0.731 
O2       O      0.4043       0.817099     0.4563      -0.731 
O2       O      0.4043       0.3171       0.9563      -0.731 
O2       O      0.9043       0.817099     0.9563      -0.731 
O2       O      0.8847       0.335601     0.435       -0.731 
O2       O      0.3847       0.8356       0.435       -0.731 
O2       O      0.3847       0.335601     0.935       -0.731 
O2       O      0.8847       0.8356       0.935       -0.731 
O3       O      0.4017       0.3765       0.0885006   -0.587 
O3       O      0.9017       0.876499     0.0885006   -0.587 
O3       O      0.9017       0.3765       0.5885      -0.587 
O3       O      0.4017       0.876499     0.5885      -0.587 
O2       O      0.371601     0.3999       0.1513      -0.731 
O2       O      0.8716       0.899899     0.1513      -0.731 
O2       O      0.8716       0.3999       0.6513      -0.731 
O2       O      0.371601     0.899899     0.6513      -0.731 
O2       O      0.4096       0.3846       0.116101    -0.731 
O2       O      0.9096       0.8846       0.116101    -0.731 
O2       O      0.9096       0.3846       0.6161      -0.731 
O2       O      0.4096       0.8846       0.6161      -0.731 
O3       O      0.423601     0.3009       0.0176996   -0.587 
O3       O      0.9236       0.8009       0.0176996   -0.587 
O3       O      0.9236       0.3009       0.5177      -0.587 
O3       O      0.423601     0.8009       0.5177      -0.587 
O3       O      0.438599     0.3391       0.0518999   -0.587 
O3       O      0.9386       0.8391       0.0518999   -0.587 
O3       O      0.9386       0.3391       0.551901    -0.587 
O3       O      0.438599     0.8391       0.551901    -0.587 
O2       O      0.4276       0.272001     0.0266001   -0.731 
O2       O      0.9276       0.772        0.0266001   -0.731 
O2       O      0.9276       0.272001     0.526599    -0.731 
O2       O      0.4276       0.772        0.526599    -0.731 
O3       O      0.0277002    0.2842       0.4879      -0.587 
O3       O      0.527699     0.784201     0.4879      -0.587 
O3       O      0.527699     0.2842       0.987899    -0.587 
O3       O      0.0277002    0.784201     0.987899    -0.587 
O2       O      0.4538       0.2747       0.0697998   -0.731 
O2       O      0.953801     0.774699     0.0697998   -0.731 
O2       O      0.953801     0.2747       0.5698      -0.731 
O2       O      0.4538       0.774699     0.5698      -0.731 
O2       O      0.4653       0.326099     0.0595001   -0.731 
O2       O      0.9653       0.8261       0.0595001   -0.731 
O2       O      0.9653       0.326099     0.559499    -0.731 
O2       O      0.4653       0.8261       0.559499    -0.731 
O3       O      0.5013       0.3416       0.196701    -0.587 
O3       O      0.00130031   0.841599     0.196701    -0.587 
O3       O      0.00130031   0.3416       0.6967      -0.587 
O3       O      0.5013       0.841599     0.6967      -0.587 
O2       O      0.330201     0.4726       0.179701    -0.731 
O2       O      0.8302       0.9726       0.179701    -0.731 
O2       O      0.8302       0.4726       0.6797      -0.731 
O2       O      0.330201     0.9726       0.6797      -0.731 
O2       O      0.4901       0.3688       0.1866      -0.731 
O2       O      0.9901       0.8688       0.1866      -0.731 
O2       O      0.9901       0.3688       0.686601    -0.731 
O2       O      0.4901       0.8688       0.686601    -0.731 
O3       O      0.3593       0.461801     0.1708      -0.587 
O3       O      0.8593       0.9618       0.1708      -0.587 
O3       O      0.8593       0.461801     0.670799    -0.587 
O3       O      0.3593       0.9618       0.670799    -0.587 
O2       O      0.475        0.368401     0.1366      -0.731 
O2       O      0.975001     0.8684       0.1366      -0.731 
O2       O      0.975001     0.368401     0.6366      -0.731 
O2       O      0.475        0.8684       0.6366      -0.731 
O2       O      0.4932       0.351501     0.1184      -0.731 
O2       O      0.993199     0.8515       0.1184      -0.731 
O2       O      0.993199     0.351501     0.6184      -0.731 
O2       O      0.4932       0.8515       0.6184      -0.731 
C3       C      0.3489       0.425        0.1683       0.11  
C3       C      0.848899     0.925        0.1683       0.11  
C3       C      0.848899     0.425        0.6683       0.11  
C3       C      0.3489       0.925        0.6683       0.11  
C2       C      0.335601     0.438401     0.1791      -0.274 
C2       C      0.8356       0.9384       0.1791      -0.274 
C2       C      0.8356       0.438401     0.679101    -0.274 
C2       C      0.335601     0.9384       0.679101    -0.274 
C1       C      0.3423       0.458501     0.1779       0.848 
C1       C      0.8423       0.9585       0.1779       0.848 
C1       C      0.8423       0.458501     0.6779       0.848 
C1       C      0.3423       0.9585       0.6779       0.848 
C3       C      0.91         0.2908       0.4839       0.11  
C3       C      0.409999     0.7908       0.4839       0.11  
C3       C      0.409999     0.2908       0.9839       0.11  
C3       C      0.91         0.7908       0.9839       0.11  
C2       C      0.9134       0.2775       0.4974      -0.274 
C2       C      0.4134       0.7775       0.4974      -0.274 
C2       C      0.4134       0.2775       0.997399    -0.274 
C2       C      0.9134       0.7775       0.997399    -0.274 
C1       C      0.4224       0.283799     0.0136999    0.848 
C1       C      0.9224       0.7838       0.0136999    0.848 
C1       C      0.9224       0.283799     0.513701     0.848 
C1       C      0.4224       0.7838       0.513701     0.848 
C2       C      0.4531       0.3519       0.0774      -0.274 
C2       C      0.9531       0.8519       0.0774      -0.274 
C2       C      0.9531       0.3519       0.577401    -0.274 
C2       C      0.4531       0.8519       0.577401    -0.274 
C3       C      0.4689       0.3551       0.0885006    0.11  
C3       C      0.9689       0.8551       0.0885006    0.11  
C3       C      0.9689       0.3551       0.5885       0.11  
C3       C      0.4689       0.8551       0.5885       0.11  
C2       C      0.4656       0.3639       0.106599    -0.274 
C2       C      0.965599     0.8639       0.106599    -0.274 
C2       C      0.965599     0.3639       0.6066      -0.274 
C2       C      0.4656       0.8639       0.6066      -0.274 
C3       C      0.447099     0.3702       0.1116       0.11  
C3       C      0.9471       0.870199     0.1116       0.11  
C3       C      0.9471       0.3702       0.6116       0.11  
C3       C      0.447099     0.870199     0.6116       0.11  
C2       C      0.4325       0.3699       0.0978003   -0.274 
C2       C      0.9325       0.8699       0.0978003   -0.274 
C2       C      0.9325       0.3699       0.5978      -0.274 
C2       C      0.4325       0.8699       0.5978      -0.274 
C3       C      0.437301     0.3638       0.0797002    0.11  
C3       C      0.9373       0.863799     0.0797002    0.11  
C3       C      0.9373       0.3638       0.5797       0.11  
C3       C      0.437301     0.863799     0.5797       0.11  
C1       C      0.4137       0.376999     0.101299     0.848 
C1       C      0.913699     0.877        0.101299     0.848 
C1       C      0.913699     0.376999     0.6013       0.848 
C1       C      0.4137       0.877        0.6013       0.848 
C1       C      0.4783       0.3608       0.121499     0.848 
C1       C      0.978299     0.8608       0.121499     0.848 
C1       C      0.978299     0.3608       0.6215       0.848 
C1       C      0.4783       0.8608       0.6215       0.848 
C1       C      0.452399     0.3386       0.0627002    0.848 
C1       C      0.9524       0.8386       0.0627002    0.848 
C1       C      0.9524       0.3386       0.562699     0.848 
C1       C      0.452399     0.8386       0.562699     0.848 
C2       C      0.4847       0.289099     0.128801    -0.274 
C2       C      0.984699     0.7891       0.128801    -0.274 
C2       C      0.984699     0.289099     0.6288      -0.274 
C2       C      0.4847       0.7891       0.6288      -0.274 
C3       C      0.4824       0.2907       0.106599     0.11  
C3       C      0.982401     0.790699     0.106599     0.11  
C3       C      0.982401     0.2907       0.6066       0.11  
C3       C      0.4824       0.790699     0.6066       0.11  
C1       C      0.5005       0.3604       0.1981       0.848 
C1       C      0.000500647  0.8604       0.1981       0.848 
C1       C      0.000500647  0.3604       0.6981       0.848 
C1       C      0.5005       0.8604       0.6981       0.848 
H1       H      0.382107     0.320568     0.0680084    0.1   
H1       H      0.882108     0.820567     0.0680084    0.1   
H1       H      0.882108     0.320568     0.568009     0.1   
H1       H      0.382107     0.820567     0.568009     0.1   
H1       H      0.399046     0.266939     0.0833241    0.1   
H1       H      0.899045     0.766939     0.0833241    0.1   
H1       H      0.899045     0.266939     0.583325     0.1   
H1       H      0.399046     0.766939     0.583325     0.1   
H1       H      0.938032     0.395516     0.396176     0.1   
H1       H      0.438032     0.895516     0.396176     0.1   
H1       H      0.438032     0.395516     0.896177     0.1   
H1       H      0.938032     0.895516     0.896177     0.1   
H1       H      0.322196     0.386713     0.167769     0.1   
H1       H      0.822196     0.886714     0.167769     0.1   
H1       H      0.822196     0.386713     0.667768     0.1   
H1       H      0.322196     0.886714     0.667768     0.1   
H1       H      0.310376     0.439989     0.195188     0.1   
H1       H      0.810377     0.93999      0.195188     0.1   
H1       H      0.810377     0.439989     0.695187     0.1   
H1       H      0.310376     0.93999      0.695187     0.1   
H1       H      0.30578      0.374739     0.126112     0.1   
H1       H      0.805779     0.87474      0.126112     0.1   
H1       H      0.805779     0.374739     0.626112     0.1   
H1       H      0.30578      0.87474      0.626112     0.1   
H1       H      0.90927      0.305918     0.487827     0.1   
H1       H      0.40927      0.805918     0.487827     0.1   
H1       H      0.40927      0.305918     0.987827     0.1   
H1       H      0.90927      0.805918     0.987827     0.1   
H1       H      0.489929     0.300853     0.099161     0.1   
H1       H      0.989928     0.800852     0.099161     0.1   
H1       H      0.989928     0.300853     0.59916      0.1   
H1       H      0.489929     0.800852     0.59916      0.1   
Cr2      Cr     0.8048       0.2726       0.2034       1.62  
Cr2      Cr     0.304801     0.772599     0.2034       1.62  
Cr2      Cr     0.304801     0.2726       0.7034       1.62  
Cr2      Cr     0.8048       0.772599     0.7034       1.62  
Cr1      Cr     0.7636       0.369699     0.0899998    1.859 
Cr1      Cr     0.263599     0.8697       0.0899998    1.859 
Cr1      Cr     0.263599     0.369699     0.590001     1.859 
Cr1      Cr     0.7636       0.8697       0.590001     1.859 
O3       O      0.845699     0.3171       0.2937      -0.587 
O3       O      0.3457       0.817099     0.2937      -0.587 
O3       O      0.3457       0.3171       0.793701    -0.587 
O3       O      0.845699     0.817099     0.793701    -0.587 
O3       O      0.8653       0.335601     0.315       -0.587 
O3       O      0.365301     0.8356       0.315       -0.587 
O3       O      0.365301     0.335601     0.814999    -0.587 
O3       O      0.8653       0.8356       0.814999    -0.587 
O2       O      0.8483       0.3765       0.1615      -0.731 
O2       O      0.348301     0.876499     0.1615      -0.731 
O2       O      0.348301     0.3765       0.6615      -0.731 
O2       O      0.8483       0.876499     0.6615      -0.731 
O3       O      0.8784       0.3999       0.0987001   -0.587 
O3       O      0.3784       0.899899     0.0987001   -0.587 
O3       O      0.3784       0.3999       0.598699    -0.587 
O3       O      0.8784       0.899899     0.598699    -0.587 
O3       O      0.840401     0.3846       0.1339      -0.587 
O3       O      0.3404       0.8846       0.1339      -0.587 
O3       O      0.3404       0.3846       0.6339      -0.587 
O3       O      0.840401     0.8846       0.6339      -0.587 
O2       O      0.8264       0.3009       0.2323      -0.731 
O2       O      0.3264       0.8009       0.2323      -0.731 
O2       O      0.3264       0.3009       0.732299    -0.731 
O2       O      0.8264       0.8009       0.732299    -0.731 
O2       O      0.8114       0.3391       0.1981      -0.731 
O2       O      0.3114       0.8391       0.1981      -0.731 
O2       O      0.3114       0.3391       0.6981      -0.731 
O2       O      0.8114       0.8391       0.6981      -0.731 
O3       O      0.822399     0.272001     0.2234      -0.587 
O3       O      0.3224       0.772        0.2234      -0.587 
O3       O      0.3224       0.272001     0.7234      -0.587 
O3       O      0.822399     0.772        0.7234      -0.587 
O2       O      0.7223       0.2842       0.2621      -0.731 
O2       O      0.222299     0.784201     0.2621      -0.731 
O2       O      0.222299     0.2842       0.7621      -0.731 
O2       O      0.7223       0.784201     0.7621      -0.731 
O3       O      0.7962       0.2747       0.1802      -0.587 
O3       O      0.2962       0.774699     0.1802      -0.587 
O3       O      0.2962       0.2747       0.680201    -0.587 
O3       O      0.7962       0.774699     0.680201    -0.587 
O2       O      0.7847       0.326099     0.1905      -0.731 
O2       O      0.284701     0.8261       0.1905      -0.731 
O2       O      0.284701     0.326099     0.6905      -0.731 
O2       O      0.7847       0.8261       0.6905      -0.731 
O2       O      0.7487       0.3416       0.0533004   -0.731 
O2       O      0.248699     0.841599     0.0533004   -0.731 
O2       O      0.248699     0.3416       0.5533      -0.731 
O2       O      0.7487       0.841599     0.5533      -0.731 
O3       O      0.919801     0.4726       0.0703004   -0.587 
O3       O      0.4198       0.9726       0.0703004   -0.587 
O3       O      0.4198       0.4726       0.5703      -0.587 
O3       O      0.919801     0.9726       0.5703      -0.587 
O2       O      0.759899     0.3688       0.0633997   -0.731 
O2       O      0.2599       0.8688       0.0633997   -0.731 
O2       O      0.2599       0.3688       0.5634      -0.731 
O2       O      0.759899     0.8688       0.5634      -0.731 
O2       O      0.8907       0.461801     0.0791996   -0.731 
O2       O      0.390701     0.9618       0.0791996   -0.731 
O2       O      0.390701     0.461801     0.5792      -0.731 
O2       O      0.8907       0.9618       0.5792      -0.731 
O2       O      0.775        0.368401     0.1134      -0.731 
O2       O      0.275        0.8684       0.1134      -0.731 
O2       O      0.275        0.368401     0.613401    -0.731 
O2       O      0.775        0.8684       0.613401    -0.731 
O3       O      0.7568       0.351501     0.1316      -0.587 
O3       O      0.2568       0.8515       0.1316      -0.587 
O3       O      0.2568       0.351501     0.631599    -0.587 
O3       O      0.7568       0.8515       0.631599    -0.587 
F1       F      0.8152       0.248601     0.1983      -0.566 
F1       F      0.3152       0.7486       0.1983      -0.566 
F1       F      0.3152       0.248601     0.698299    -0.566 
F1       F      0.8152       0.7486       0.698299    -0.566 
C3       C      0.9011       0.425        0.0817001    0.11  
C3       C      0.4011       0.925        0.0817001    0.11  
C3       C      0.4011       0.425        0.581699     0.11  
C3       C      0.9011       0.925        0.581699     0.11  
C2       C      0.9144       0.438401     0.0708998   -0.274 
C2       C      0.4144       0.9384       0.0708998   -0.274 
C2       C      0.4144       0.438401     0.5709      -0.274 
C2       C      0.9144       0.9384       0.5709      -0.274 
C1       C      0.9077       0.458501     0.0721       0.848 
C1       C      0.407701     0.9585       0.0721       0.848 
C1       C      0.407701     0.458501     0.572101     0.848 
C1       C      0.9077       0.9585       0.572101     0.848 
C3       C      0.84         0.2908       0.2661       0.11  
C3       C      0.339999     0.7908       0.2661       0.11  
C3       C      0.339999     0.2908       0.766101     0.11  
C3       C      0.84         0.7908       0.766101     0.11  
C2       C      0.8366       0.2775       0.2526      -0.274 
C2       C      0.336601     0.7775       0.2526      -0.274 
C2       C      0.336601     0.2775       0.7526      -0.274 
C2       C      0.8366       0.7775       0.7526      -0.274 
C1       C      0.827601     0.283799     0.2363       0.848 
C1       C      0.3276       0.7838       0.2363       0.848 
C1       C      0.3276       0.283799     0.7363       0.848 
C1       C      0.827601     0.7838       0.7363       0.848 
C2       C      0.796901     0.3519       0.1726      -0.274 
C2       C      0.2969       0.8519       0.1726      -0.274 
C2       C      0.2969       0.3519       0.6726      -0.274 
C2       C      0.796901     0.8519       0.6726      -0.274 
C3       C      0.781099     0.3551       0.1615       0.11  
C3       C      0.2811       0.8551       0.1615       0.11  
C3       C      0.2811       0.3551       0.6615       0.11  
C3       C      0.781099     0.8551       0.6615       0.11  
C2       C      0.7844       0.3639       0.1434      -0.274 
C2       C      0.2844       0.8639       0.1434      -0.274 
C2       C      0.2844       0.3639       0.6434      -0.274 
C2       C      0.7844       0.8639       0.6434      -0.274 
C3       C      0.8029       0.3702       0.138399     0.11  
C3       C      0.302899     0.870199     0.138399     0.11  
C3       C      0.302899     0.3702       0.6384       0.11  
C3       C      0.8029       0.870199     0.6384       0.11  
C2       C      0.8175       0.3699       0.152199    -0.274 
C2       C      0.317501     0.8699       0.152199    -0.274 
C2       C      0.317501     0.3699       0.6522      -0.274 
C2       C      0.8175       0.8699       0.6522      -0.274 
C3       C      0.812701     0.3638       0.170299     0.11  
C3       C      0.3127       0.863799     0.170299     0.11  
C3       C      0.3127       0.3638       0.6703       0.11  
C3       C      0.812701     0.863799     0.6703       0.11  
C1       C      0.836299     0.376999     0.1487       0.848 
C1       C      0.3363       0.877        0.1487       0.848 
C1       C      0.3363       0.376999     0.6487       0.848 
C1       C      0.836299     0.877        0.6487       0.848 
C1       C      0.7717       0.3608       0.1285       0.848 
C1       C      0.2717       0.8608       0.1285       0.848 
C1       C      0.2717       0.3608       0.6285       0.848 
C1       C      0.7717       0.8608       0.6285       0.848 
C1       C      0.7976       0.3386       0.187299     0.848 
C1       C      0.2976       0.8386       0.187299     0.848 
C1       C      0.2976       0.3386       0.6873       0.848 
C1       C      0.7976       0.8386       0.6873       0.848 
C2       C      0.7653       0.289099     0.1212      -0.274 
C2       C      0.2653       0.7891       0.1212      -0.274 
C2       C      0.2653       0.289099     0.6212      -0.274 
C2       C      0.7653       0.7891       0.6212      -0.274 
C3       C      0.7676       0.2907       0.1434       0.11  
C3       C      0.2676       0.790699     0.1434       0.11  
C3       C      0.2676       0.2907       0.6434       0.11  
C3       C      0.7676       0.790699     0.6434       0.11  
C1       C      0.7495       0.3604       0.0518999    0.848 
C1       C      0.2495       0.8604       0.0518999    0.848 
C1       C      0.2495       0.3604       0.551901     0.848 
C1       C      0.7495       0.8604       0.551901     0.848 
H1       H      0.867892     0.320568     0.181991     0.1   
H1       H      0.367892     0.820567     0.181991     0.1   
H1       H      0.367892     0.320568     0.681992     0.1   
H1       H      0.867892     0.820567     0.681992     0.1   
H1       H      0.850954     0.266939     0.166676     0.1   
H1       H      0.350955     0.766939     0.166676     0.1   
H1       H      0.350955     0.266939     0.666676     0.1   
H1       H      0.850954     0.766939     0.666676     0.1   
H1       H      0.811968     0.395516     0.353823     0.1   
H1       H      0.311969     0.895516     0.353823     0.1   
H1       H      0.311969     0.395516     0.853824     0.1   
H1       H      0.811968     0.895516     0.853824     0.1   
H1       H      0.927804     0.386713     0.0822309    0.1   
H1       H      0.427803     0.886714     0.0822309    0.1   
H1       H      0.427803     0.386713     0.582232     0.1   
H1       H      0.927804     0.886714     0.582232     0.1   
H1       H      0.94422      0.374739     0.123887     0.1   
H1       H      0.44422      0.87474      0.123887     0.1   
H1       H      0.44422      0.374739     0.623888     0.1   
H1       H      0.94422      0.87474      0.623888     0.1   
H1       H      0.84073      0.305918     0.262173     0.1   
H1       H      0.340729     0.805918     0.262173     0.1   
H1       H      0.340729     0.305918     0.762172     0.1   
H1       H      0.84073      0.805918     0.762172     0.1   
H1       H      0.760071     0.300853     0.15084      0.1   
H1       H      0.260072     0.800852     0.15084      0.1   
H1       H      0.260072     0.300853     0.650839     0.1   
H1       H      0.760071     0.800852     0.650839     0.1   
Cr2      Cr     0.9452       0.4774       0.2034       1.62  
Cr2      Cr     0.4452       0.9774       0.2034       1.62  
Cr2      Cr     0.4452       0.4774       0.7034       1.62  
Cr2      Cr     0.9452       0.9774       0.7034       1.62  
Cr2      Cr     0.9864       0.380299     0.0899998    1.62  
Cr2      Cr     0.4864       0.8803       0.0899998    1.62  
Cr2      Cr     0.4864       0.380299     0.590001     1.62  
Cr2      Cr     0.9864       0.8803       0.590001     1.62  
O3       O      0.9043       0.4329       0.2937      -0.587 
O3       O      0.4043       0.9329       0.2937      -0.587 
O3       O      0.4043       0.4329       0.793701    -0.587 
O3       O      0.9043       0.9329       0.793701    -0.587 
O3       O      0.8847       0.4144       0.315       -0.587 
O3       O      0.3847       0.9144       0.315       -0.587 
O3       O      0.3847       0.4144       0.814999    -0.587 
O3       O      0.8847       0.9144       0.814999    -0.587 
O2       O      0.9017       0.3735       0.1615      -0.731 
O2       O      0.4017       0.8735       0.1615      -0.731 
O2       O      0.4017       0.3735       0.6615      -0.731 
O2       O      0.9017       0.8735       0.6615      -0.731 
O2       O      0.8716       0.3501       0.0987001   -0.731 
O2       O      0.371601     0.8501       0.0987001   -0.731 
O2       O      0.371601     0.3501       0.598699    -0.731 
O2       O      0.8716       0.8501       0.598699    -0.731 
O2       O      0.9096       0.365399     0.1339      -0.731 
O2       O      0.4096       0.8654       0.1339      -0.731 
O2       O      0.4096       0.365399     0.6339      -0.731 
O2       O      0.9096       0.8654       0.6339      -0.731 
O2       O      0.9236       0.449101     0.2323      -0.731 
O2       O      0.423601     0.9491       0.2323      -0.731 
O2       O      0.423601     0.449101     0.732299    -0.731 
O2       O      0.9236       0.9491       0.732299    -0.731 
O2       O      0.9386       0.410901     0.1981      -0.731 
O2       O      0.438599     0.9109       0.1981      -0.731 
O2       O      0.438599     0.410901     0.6981      -0.731 
O2       O      0.9386       0.9109       0.6981      -0.731 
O3       O      0.9276       0.478        0.2234      -0.587 
O3       O      0.4276       0.978        0.2234      -0.587 
O3       O      0.4276       0.478        0.7234      -0.587 
O3       O      0.9276       0.978        0.7234      -0.587 
O2       O      0.0277002    0.4658       0.2621      -0.731 
O2       O      0.527699     0.9658       0.2621      -0.731 
O2       O      0.527699     0.4658       0.7621      -0.731 
O2       O      0.0277002    0.9658       0.7621      -0.731 
O3       O      0.953801     0.4753       0.1802      -0.587 
O3       O      0.4538       0.9753       0.1802      -0.587 
O3       O      0.4538       0.4753       0.680201    -0.587 
O3       O      0.953801     0.9753       0.680201    -0.587 
O2       O      0.9653       0.4239       0.1905      -0.731 
O2       O      0.4653       0.9239       0.1905      -0.731 
O2       O      0.4653       0.4239       0.6905      -0.731 
O2       O      0.9653       0.9239       0.6905      -0.731 
O2       O      0.00130031   0.4084       0.0533004   -0.731 
O2       O      0.5013       0.908399     0.0533004   -0.731 
O2       O      0.5013       0.4084       0.5533      -0.731 
O2       O      0.00130031   0.908399     0.5533      -0.731 
O3       O      0.8302       0.277399     0.0703004   -0.587 
O3       O      0.330201     0.7774       0.0703004   -0.587 
O3       O      0.330201     0.277399     0.5703      -0.587 
O3       O      0.8302       0.7774       0.5703      -0.587 
O3       O      0.9901       0.381201     0.0633997   -0.587 
O3       O      0.4901       0.8812       0.0633997   -0.587 
O3       O      0.4901       0.381201     0.5634      -0.587 
O3       O      0.9901       0.8812       0.5634      -0.587 
O2       O      0.8593       0.2882       0.0791996   -0.731 
O2       O      0.3593       0.7882       0.0791996   -0.731 
O2       O      0.3593       0.2882       0.5792      -0.731 
O2       O      0.8593       0.7882       0.5792      -0.731 
O3       O      0.975001     0.3816       0.1134      -0.587 
O3       O      0.475        0.8816       0.1134      -0.587 
O3       O      0.475        0.3816       0.613401    -0.587 
O3       O      0.975001     0.8816       0.613401    -0.587 
O2       O      0.993199     0.3985       0.1316      -0.731 
O2       O      0.4932       0.8985       0.1316      -0.731 
O2       O      0.4932       0.3985       0.631599    -0.731 
O2       O      0.993199     0.8985       0.631599    -0.731 
F1       F      0.4348       0.00140044   0.1983      -0.566 
F1       F      0.934801     0.5014       0.1983      -0.566 
F1       F      0.934801     0.00140044   0.698299    -0.566 
F1       F      0.4348       0.5014       0.698299    -0.566 
F1       F      0.9757       0.3575       0.0844996   -0.566 
F1       F      0.475699     0.857499     0.0844996   -0.566 
F1       F      0.475699     0.3575       0.5845      -0.566 
F1       F      0.9757       0.857499     0.5845      -0.566 
C3       C      0.848899     0.325001     0.0817001    0.11  
C3       C      0.3489       0.825        0.0817001    0.11  
C3       C      0.3489       0.325001     0.581699     0.11  
C3       C      0.848899     0.825        0.581699     0.11  
C2       C      0.8356       0.3116       0.0708998   -0.274 
C2       C      0.335601     0.8116       0.0708998   -0.274 
C2       C      0.335601     0.3116       0.5709      -0.274 
C2       C      0.8356       0.8116       0.5709      -0.274 
C1       C      0.8423       0.2915       0.0721       0.848 
C1       C      0.3423       0.791501     0.0721       0.848 
C1       C      0.3423       0.2915       0.572101     0.848 
C1       C      0.8423       0.791501     0.572101     0.848 
C3       C      0.91         0.4592       0.2661       0.11  
C3       C      0.409999     0.959199     0.2661       0.11  
C3       C      0.409999     0.4592       0.766101     0.11  
C3       C      0.91         0.959199     0.766101     0.11  
C2       C      0.9134       0.472499     0.2526      -0.274 
C2       C      0.4134       0.9725       0.2526      -0.274 
C2       C      0.4134       0.472499     0.7526      -0.274 
C2       C      0.9134       0.9725       0.7526      -0.274 
C1       C      0.9224       0.466199     0.2363       0.848 
C1       C      0.4224       0.9662       0.2363       0.848 
C1       C      0.4224       0.466199     0.7363       0.848 
C1       C      0.9224       0.9662       0.7363       0.848 
C2       C      0.9531       0.398101     0.1726      -0.274 
C2       C      0.4531       0.8981       0.1726      -0.274 
C2       C      0.4531       0.398101     0.6726      -0.274 
C2       C      0.9531       0.8981       0.6726      -0.274 
C3       C      0.9689       0.394901     0.1615       0.11  
C3       C      0.4689       0.8949       0.1615       0.11  
C3       C      0.4689       0.394901     0.6615       0.11  
C3       C      0.9689       0.8949       0.6615       0.11  
C2       C      0.965599     0.3861       0.1434      -0.274 
C2       C      0.4656       0.886099     0.1434      -0.274 
C2       C      0.4656       0.3861       0.6434      -0.274 
C2       C      0.965599     0.886099     0.6434      -0.274 
C3       C      0.9471       0.3798       0.138399     0.11  
C3       C      0.447099     0.8798       0.138399     0.11  
C3       C      0.447099     0.3798       0.6384       0.11  
C3       C      0.9471       0.8798       0.6384       0.11  
C2       C      0.9325       0.380101     0.152199    -0.274 
C2       C      0.4325       0.8801       0.152199    -0.274 
C2       C      0.4325       0.380101     0.6522      -0.274 
C2       C      0.9325       0.8801       0.6522      -0.274 
C3       C      0.9373       0.3862       0.170299     0.11  
C3       C      0.437301     0.8862       0.170299     0.11  
C3       C      0.437301     0.3862       0.6703       0.11  
C3       C      0.9373       0.8862       0.6703       0.11  
C1       C      0.913699     0.373        0.1487       0.848 
C1       C      0.4137       0.873        0.1487       0.848 
C1       C      0.4137       0.373        0.6487       0.848 
C1       C      0.913699     0.873        0.6487       0.848 
C1       C      0.978299     0.3892       0.1285       0.848 
C1       C      0.4783       0.889201     0.1285       0.848 
C1       C      0.4783       0.3892       0.6285       0.848 
C1       C      0.978299     0.889201     0.6285       0.848 
C1       C      0.9524       0.4114       0.187299     0.848 
C1       C      0.452399     0.911401     0.187299     0.848 
C1       C      0.452399     0.4114       0.6873       0.848 
C1       C      0.9524       0.911401     0.6873       0.848 
C2       C      0.984699     0.460899     0.1212      -0.274 
C2       C      0.4847       0.9609       0.1212      -0.274 
C2       C      0.4847       0.460899     0.6212      -0.274 
C2       C      0.984699     0.9609       0.6212      -0.274 
C3       C      0.982401     0.4593       0.1434       0.11  
C3       C      0.4824       0.959299     0.1434       0.11  
C3       C      0.4824       0.4593       0.6434       0.11  
C3       C      0.982401     0.959299     0.6434       0.11  
C1       C      0.000500647  0.389601     0.0518999    0.848 
C1       C      0.5005       0.8896       0.0518999    0.848 
C1       C      0.5005       0.389601     0.551901     0.848 
C1       C      0.000500647  0.8896       0.551901     0.848 
H1       H      0.882108     0.429433     0.181991     0.1   
H1       H      0.382107     0.929434     0.181991     0.1   
H1       H      0.382107     0.429433     0.681992     0.1   
H1       H      0.882108     0.929434     0.681992     0.1   
H1       H      0.899045     0.483061     0.166676     0.1   
H1       H      0.399046     0.98306      0.166676     0.1   
H1       H      0.399046     0.483061     0.666676     0.1   
H1       H      0.899045     0.98306      0.666676     0.1   
H1       H      0.822196     0.363286     0.0822309    0.1   
H1       H      0.322196     0.863286     0.0822309    0.1   
H1       H      0.322196     0.363286     0.582232     0.1   
H1       H      0.822196     0.863286     0.582232     0.1   
H1       H      0.805779     0.37526      0.123887     0.1   
H1       H      0.30578      0.875261     0.123887     0.1   
H1       H      0.30578      0.37526      0.623888     0.1   
H1       H      0.805779     0.875261     0.623888     0.1   
H1       H      0.90927      0.444082     0.262173     0.1   
H1       H      0.40927      0.944083     0.262173     0.1   
H1       H      0.40927      0.444082     0.762172     0.1   
H1       H      0.90927      0.944083     0.762172     0.1   
H1       H      0.989928     0.449147     0.15084      0.1   
H1       H      0.489929     0.949148     0.15084      0.1   
H1       H      0.489929     0.449147     0.650839     0.1   
H1       H      0.989928     0.949148     0.650839     0.1   
Cr1      Cr     0.9774       0.2034       0.4452       1.859 
Cr1      Cr     0.4774       0.7034       0.4452       1.859 
Cr1      Cr     0.4774       0.2034       0.9452       1.859 
Cr1      Cr     0.9774       0.7034       0.9452       1.859 
Cr2      Cr     0.8803       0.0899998    0.4864       1.62  
Cr2      Cr     0.380299     0.590001     0.4864       1.62  
Cr2      Cr     0.380299     0.0899998    0.9864       1.62  
Cr2      Cr     0.8803       0.590001     0.9864       1.62  
O2       O      0.9329       0.2937       0.4043      -0.731 
O2       O      0.4329       0.793701     0.4043      -0.731 
O2       O      0.4329       0.2937       0.9043      -0.731 
O2       O      0.9329       0.793701     0.9043      -0.731 
O2       O      0.9144       0.315        0.3847      -0.731 
O2       O      0.4144       0.814999     0.3847      -0.731 
O2       O      0.4144       0.315        0.8847      -0.731 
O2       O      0.9144       0.814999     0.8847      -0.731 
O2       O      0.8735       0.1615       0.4017      -0.731 
O2       O      0.3735       0.6615       0.4017      -0.731 
O2       O      0.3735       0.1615       0.9017      -0.731 
O2       O      0.8735       0.6615       0.9017      -0.731 
O2       O      0.8501       0.0987001    0.371601    -0.731 
O2       O      0.3501       0.598699     0.371601    -0.731 
O2       O      0.3501       0.0987001    0.8716      -0.731 
O2       O      0.8501       0.598699     0.8716      -0.731 
O2       O      0.8654       0.1339       0.4096      -0.731 
O2       O      0.365399     0.6339       0.4096      -0.731 
O2       O      0.365399     0.1339       0.9096      -0.731 
O2       O      0.8654       0.6339       0.9096      -0.731 
O2       O      0.9491       0.2323       0.423601    -0.731 
O2       O      0.449101     0.732299     0.423601    -0.731 
O2       O      0.449101     0.2323       0.9236      -0.731 
O2       O      0.9491       0.732299     0.9236      -0.731 
O2       O      0.9109       0.1981       0.438599    -0.731 
O2       O      0.410901     0.6981       0.438599    -0.731 
O2       O      0.410901     0.1981       0.9386      -0.731 
O2       O      0.9109       0.6981       0.9386      -0.731 
O2       O      0.978        0.2234       0.4276      -0.731 
O2       O      0.478        0.7234       0.4276      -0.731 
O2       O      0.478        0.2234       0.9276      -0.731 
O2       O      0.978        0.7234       0.9276      -0.731 
O2       O      0.4658       0.2621       0.0277002   -0.731 
O2       O      0.9658       0.7621       0.0277002   -0.731 
O2       O      0.9658       0.2621       0.527699    -0.731 
O2       O      0.4658       0.7621       0.527699    -0.731 
O2       O      0.9753       0.1802       0.4538      -0.731 
O2       O      0.4753       0.680201     0.4538      -0.731 
O2       O      0.4753       0.1802       0.953801    -0.731 
O2       O      0.9753       0.680201     0.953801    -0.731 
O3       O      0.9239       0.1905       0.4653      -0.587 
O3       O      0.4239       0.6905       0.4653      -0.587 
O3       O      0.4239       0.1905       0.9653      -0.587 
O3       O      0.9239       0.6905       0.9653      -0.587 
O2       O      0.4084       0.0533004    0.00130031  -0.731 
O2       O      0.908399     0.5533       0.00130031  -0.731 
O2       O      0.908399     0.0533004    0.5013      -0.731 
O2       O      0.4084       0.5533       0.5013      -0.731 
O2       O      0.7774       0.0703004    0.330201    -0.731 
O2       O      0.277399     0.5703       0.330201    -0.731 
O2       O      0.277399     0.0703004    0.8302      -0.731 
O2       O      0.7774       0.5703       0.8302      -0.731 
O3       O      0.8812       0.0633997    0.4901      -0.587 
O3       O      0.381201     0.5634       0.4901      -0.587 
O3       O      0.381201     0.0633997    0.9901      -0.587 
O3       O      0.8812       0.5634       0.9901      -0.587 
O2       O      0.7882       0.0791996    0.3593      -0.731 
O2       O      0.2882       0.5792       0.3593      -0.731 
O2       O      0.2882       0.0791996    0.8593      -0.731 
O2       O      0.7882       0.5792       0.8593      -0.731 
O3       O      0.8816       0.1134       0.475       -0.587 
O3       O      0.3816       0.613401     0.475       -0.587 
O3       O      0.3816       0.1134       0.975001    -0.587 
O3       O      0.8816       0.613401     0.975001    -0.587 
O2       O      0.8985       0.1316       0.4932      -0.731 
O2       O      0.3985       0.631599     0.4932      -0.731 
O2       O      0.3985       0.1316       0.993199    -0.731 
O2       O      0.8985       0.631599     0.993199    -0.731 
F1       F      0.857499     0.0844996    0.475699    -0.566 
F1       F      0.3575       0.5845       0.475699    -0.566 
F1       F      0.3575       0.0844996    0.9757      -0.566 
F1       F      0.857499     0.5845       0.9757      -0.566 
C3       C      0.825        0.0817001    0.3489       0.11  
C3       C      0.325001     0.581699     0.3489       0.11  
C3       C      0.325001     0.0817001    0.848899     0.11  
C3       C      0.825        0.581699     0.848899     0.11  
C2       C      0.8116       0.0708998    0.335601    -0.274 
C2       C      0.3116       0.5709       0.335601    -0.274 
C2       C      0.3116       0.0708998    0.8356      -0.274 
C2       C      0.8116       0.5709       0.8356      -0.274 
C1       C      0.791501     0.0721       0.3423       0.848 
C1       C      0.2915       0.572101     0.3423       0.848 
C1       C      0.2915       0.0721       0.8423       0.848 
C1       C      0.791501     0.572101     0.8423       0.848 
C3       C      0.959199     0.2661       0.409999     0.11  
C3       C      0.4592       0.766101     0.409999     0.11  
C3       C      0.4592       0.2661       0.91         0.11  
C3       C      0.959199     0.766101     0.91         0.11  
C2       C      0.9725       0.2526       0.4134      -0.274 
C2       C      0.472499     0.7526       0.4134      -0.274 
C2       C      0.472499     0.2526       0.9134      -0.274 
C2       C      0.9725       0.7526       0.9134      -0.274 
C1       C      0.9662       0.2363       0.4224       0.848 
C1       C      0.466199     0.7363       0.4224       0.848 
C1       C      0.466199     0.2363       0.9224       0.848 
C1       C      0.9662       0.7363       0.9224       0.848 
C2       C      0.8981       0.1726       0.4531      -0.274 
C2       C      0.398101     0.6726       0.4531      -0.274 
C2       C      0.398101     0.1726       0.9531      -0.274 
C2       C      0.8981       0.6726       0.9531      -0.274 
C3       C      0.8949       0.1615       0.4689       0.11  
C3       C      0.394901     0.6615       0.4689       0.11  
C3       C      0.394901     0.1615       0.9689       0.11  
C3       C      0.8949       0.6615       0.9689       0.11  
C2       C      0.886099     0.1434       0.4656      -0.274 
C2       C      0.3861       0.6434       0.4656      -0.274 
C2       C      0.3861       0.1434       0.965599    -0.274 
C2       C      0.886099     0.6434       0.965599    -0.274 
C3       C      0.8798       0.138399     0.447099     0.11  
C3       C      0.3798       0.6384       0.447099     0.11  
C3       C      0.3798       0.138399     0.9471       0.11  
C3       C      0.8798       0.6384       0.9471       0.11  
C2       C      0.8801       0.152199     0.4325      -0.274 
C2       C      0.380101     0.6522       0.4325      -0.274 
C2       C      0.380101     0.152199     0.9325      -0.274 
C2       C      0.8801       0.6522       0.9325      -0.274 
C3       C      0.8862       0.170299     0.437301     0.11  
C3       C      0.3862       0.6703       0.437301     0.11  
C3       C      0.3862       0.170299     0.9373       0.11  
C3       C      0.8862       0.6703       0.9373       0.11  
C1       C      0.873        0.1487       0.4137       0.848 
C1       C      0.373        0.6487       0.4137       0.848 
C1       C      0.373        0.1487       0.913699     0.848 
C1       C      0.873        0.6487       0.913699     0.848 
C1       C      0.889201     0.1285       0.4783       0.848 
C1       C      0.3892       0.6285       0.4783       0.848 
C1       C      0.3892       0.1285       0.978299     0.848 
C1       C      0.889201     0.6285       0.978299     0.848 
C1       C      0.911401     0.187299     0.452399     0.848 
C1       C      0.4114       0.6873       0.452399     0.848 
C1       C      0.4114       0.187299     0.9524       0.848 
C1       C      0.911401     0.6873       0.9524       0.848 
C2       C      0.9609       0.1212       0.4847      -0.274 
C2       C      0.460899     0.6212       0.4847      -0.274 
C2       C      0.460899     0.1212       0.984699    -0.274 
C2       C      0.9609       0.6212       0.984699    -0.274 
C3       C      0.959299     0.1434       0.4824       0.11  
C3       C      0.4593       0.6434       0.4824       0.11  
C3       C      0.4593       0.1434       0.982401     0.11  
C3       C      0.959299     0.6434       0.982401     0.11  
C1       C      0.389601     0.0518999    0.000500647  0.848 
C1       C      0.8896       0.551901     0.000500647  0.848 
C1       C      0.8896       0.0518999    0.5005       0.848 
C1       C      0.389601     0.551901     0.5005       0.848 
H1       H      0.929434     0.181991     0.382107     0.1   
H1       H      0.429433     0.681992     0.382107     0.1   
H1       H      0.429433     0.181991     0.882108     0.1   
H1       H      0.929434     0.681992     0.882108     0.1   
H1       H      0.98306      0.166676     0.399046     0.1   
H1       H      0.483061     0.666676     0.399046     0.1   
H1       H      0.483061     0.166676     0.899045     0.1   
H1       H      0.98306      0.666676     0.899045     0.1   
H1       H      0.863286     0.0822309    0.322196     0.1   
H1       H      0.363286     0.582232     0.322196     0.1   
H1       H      0.363286     0.0822309    0.822196     0.1   
H1       H      0.863286     0.582232     0.822196     0.1   
H1       H      0.875261     0.123887     0.30578      0.1   
H1       H      0.37526      0.623888     0.30578      0.1   
H1       H      0.37526      0.123887     0.805779     0.1   
H1       H      0.875261     0.623888     0.805779     0.1   
H1       H      0.944083     0.262173     0.40927      0.1   
H1       H      0.444082     0.762172     0.40927      0.1   
H1       H      0.444082     0.262173     0.90927      0.1   
H1       H      0.944083     0.762172     0.90927      0.1   
H1       H      0.949148     0.15084      0.489929     0.1   
H1       H      0.449147     0.650839     0.489929     0.1   
H1       H      0.449147     0.15084      0.989928     0.1   
H1       H      0.949148     0.650839     0.989928     0.1   
Cr1      Cr     0.772599     0.2034       0.304801     1.859 
Cr1      Cr     0.2726       0.7034       0.304801     1.859 
Cr1      Cr     0.2726       0.2034       0.8048       1.859 
Cr1      Cr     0.772599     0.7034       0.8048       1.859 
Cr1      Cr     0.8697       0.0899998    0.263599     1.859 
Cr1      Cr     0.369699     0.590001     0.263599     1.859 
Cr1      Cr     0.369699     0.0899998    0.7636       1.859 
Cr1      Cr     0.8697       0.590001     0.7636       1.859 
O2       O      0.817099     0.2937       0.3457      -0.731 
O2       O      0.3171       0.793701     0.3457      -0.731 
O2       O      0.3171       0.2937       0.845699    -0.731 
O2       O      0.817099     0.793701     0.845699    -0.731 
O2       O      0.8356       0.315        0.365301    -0.731 
O2       O      0.335601     0.814999     0.365301    -0.731 
O2       O      0.335601     0.315        0.8653      -0.731 
O2       O      0.8356       0.814999     0.8653      -0.731 
O2       O      0.876499     0.1615       0.348301    -0.731 
O2       O      0.3765       0.6615       0.348301    -0.731 
O2       O      0.3765       0.1615       0.8483      -0.731 
O2       O      0.876499     0.6615       0.8483      -0.731 
O3       O      0.899899     0.0987001    0.3784      -0.587 
O3       O      0.3999       0.598699     0.3784      -0.587 
O3       O      0.3999       0.0987001    0.8784      -0.587 
O3       O      0.899899     0.598699     0.8784      -0.587 
O3       O      0.8846       0.1339       0.3404      -0.587 
O3       O      0.3846       0.6339       0.3404      -0.587 
O3       O      0.3846       0.1339       0.840401    -0.587 
O3       O      0.8846       0.6339       0.840401    -0.587 
O3       O      0.8009       0.2323       0.3264      -0.587 
O3       O      0.3009       0.732299     0.3264      -0.587 
O3       O      0.3009       0.2323       0.8264      -0.587 
O3       O      0.8009       0.732299     0.8264      -0.587 
O3       O      0.8391       0.1981       0.3114      -0.587 
O3       O      0.3391       0.6981       0.3114      -0.587 
O3       O      0.3391       0.1981       0.8114      -0.587 
O3       O      0.8391       0.6981       0.8114      -0.587 
O2       O      0.772        0.2234       0.3224      -0.731 
O2       O      0.272001     0.7234       0.3224      -0.731 
O2       O      0.272001     0.2234       0.822399    -0.731 
O2       O      0.772        0.7234       0.822399    -0.731 
O3       O      0.784201     0.2621       0.222299    -0.587 
O3       O      0.2842       0.7621       0.222299    -0.587 
O3       O      0.2842       0.2621       0.7223      -0.587 
O3       O      0.784201     0.7621       0.7223      -0.587 
O2       O      0.774699     0.1802       0.2962      -0.731 
O2       O      0.2747       0.680201     0.2962      -0.731 
O2       O      0.2747       0.1802       0.7962      -0.731 
O2       O      0.774699     0.680201     0.7962      -0.731 
O2       O      0.8261       0.1905       0.284701    -0.731 
O2       O      0.326099     0.6905       0.284701    -0.731 
O2       O      0.326099     0.1905       0.7847      -0.731 
O2       O      0.8261       0.6905       0.7847      -0.731 
O3       O      0.841599     0.0533004    0.248699    -0.587 
O3       O      0.3416       0.5533       0.248699    -0.587 
O3       O      0.3416       0.0533004    0.7487      -0.587 
O3       O      0.841599     0.5533       0.7487      -0.587 
O3       O      0.9726       0.0703004    0.4198      -0.587 
O3       O      0.4726       0.5703       0.4198      -0.587 
O3       O      0.4726       0.0703004    0.919801    -0.587 
O3       O      0.9726       0.5703       0.919801    -0.587 
O2       O      0.8688       0.0633997    0.2599      -0.731 
O2       O      0.3688       0.5634       0.2599      -0.731 
O2       O      0.3688       0.0633997    0.759899    -0.731 
O2       O      0.8688       0.5634       0.759899    -0.731 
O2       O      0.9618       0.0791996    0.390701    -0.731 
O2       O      0.461801     0.5792       0.390701    -0.731 
O2       O      0.461801     0.0791996    0.8907      -0.731 
O2       O      0.9618       0.5792       0.8907      -0.731 
O2       O      0.8684       0.1134       0.275       -0.731 
O2       O      0.368401     0.613401     0.275       -0.731 
O2       O      0.368401     0.1134       0.775       -0.731 
O2       O      0.8684       0.613401     0.775       -0.731 
O2       O      0.8515       0.1316       0.2568      -0.731 
O2       O      0.351501     0.631599     0.2568      -0.731 
O2       O      0.351501     0.1316       0.7568      -0.731 
O2       O      0.8515       0.631599     0.7568      -0.731 
C3       C      0.925        0.0817001    0.4011       0.11  
C3       C      0.425        0.581699     0.4011       0.11  
C3       C      0.425        0.0817001    0.9011       0.11  
C3       C      0.925        0.581699     0.9011       0.11  
C2       C      0.9384       0.0708998    0.4144      -0.274 
C2       C      0.438401     0.5709       0.4144      -0.274 
C2       C      0.438401     0.0708998    0.9144      -0.274 
C2       C      0.9384       0.5709       0.9144      -0.274 
C1       C      0.9585       0.0721       0.407701     0.848 
C1       C      0.458501     0.572101     0.407701     0.848 
C1       C      0.458501     0.0721       0.9077       0.848 
C1       C      0.9585       0.572101     0.9077       0.848 
C3       C      0.7908       0.2661       0.339999     0.11  
C3       C      0.2908       0.766101     0.339999     0.11  
C3       C      0.2908       0.2661       0.84         0.11  
C3       C      0.7908       0.766101     0.84         0.11  
C2       C      0.7775       0.2526       0.336601    -0.274 
C2       C      0.2775       0.7526       0.336601    -0.274 
C2       C      0.2775       0.2526       0.8366      -0.274 
C2       C      0.7775       0.7526       0.8366      -0.274 
C1       C      0.7838       0.2363       0.3276       0.848 
C1       C      0.283799     0.7363       0.3276       0.848 
C1       C      0.283799     0.2363       0.827601     0.848 
C1       C      0.7838       0.7363       0.827601     0.848 
C2       C      0.8519       0.1726       0.2969      -0.274 
C2       C      0.3519       0.6726       0.2969      -0.274 
C2       C      0.3519       0.1726       0.796901    -0.274 
C2       C      0.8519       0.6726       0.796901    -0.274 
C3       C      0.8551       0.1615       0.2811       0.11  
C3       C      0.3551       0.6615       0.2811       0.11  
C3       C      0.3551       0.1615       0.781099     0.11  
C3       C      0.8551       0.6615       0.781099     0.11  
C2       C      0.8639       0.1434       0.2844      -0.274 
C2       C      0.3639       0.6434       0.2844      -0.274 
C2       C      0.3639       0.1434       0.7844      -0.274 
C2       C      0.8639       0.6434       0.7844      -0.274 
C3       C      0.870199     0.138399     0.302899     0.11  
C3       C      0.3702       0.6384       0.302899     0.11  
C3       C      0.3702       0.138399     0.8029       0.11  
C3       C      0.870199     0.6384       0.8029       0.11  
C2       C      0.8699       0.152199     0.317501    -0.274 
C2       C      0.3699       0.6522       0.317501    -0.274 
C2       C      0.3699       0.152199     0.8175      -0.274 
C2       C      0.8699       0.6522       0.8175      -0.274 
C3       C      0.863799     0.170299     0.3127       0.11  
C3       C      0.3638       0.6703       0.3127       0.11  
C3       C      0.3638       0.170299     0.812701     0.11  
C3       C      0.863799     0.6703       0.812701     0.11  
C1       C      0.877        0.1487       0.3363       0.848 
C1       C      0.376999     0.6487       0.3363       0.848 
C1       C      0.376999     0.1487       0.836299     0.848 
C1       C      0.877        0.6487       0.836299     0.848 
C1       C      0.8608       0.1285       0.2717       0.848 
C1       C      0.3608       0.6285       0.2717       0.848 
C1       C      0.3608       0.1285       0.7717       0.848 
C1       C      0.8608       0.6285       0.7717       0.848 
C1       C      0.8386       0.187299     0.2976       0.848 
C1       C      0.3386       0.6873       0.2976       0.848 
C1       C      0.3386       0.187299     0.7976       0.848 
C1       C      0.8386       0.6873       0.7976       0.848 
C2       C      0.7891       0.1212       0.2653      -0.274 
C2       C      0.289099     0.6212       0.2653      -0.274 
C2       C      0.289099     0.1212       0.7653      -0.274 
C2       C      0.7891       0.6212       0.7653      -0.274 
C3       C      0.790699     0.1434       0.2676       0.11  
C3       C      0.2907       0.6434       0.2676       0.11  
C3       C      0.2907       0.1434       0.7676       0.11  
C3       C      0.790699     0.6434       0.7676       0.11  
C1       C      0.8604       0.0518999    0.2495       0.848 
C1       C      0.3604       0.551901     0.2495       0.848 
C1       C      0.3604       0.0518999    0.7495       0.848 
C1       C      0.8604       0.551901     0.7495       0.848 
H1       H      0.820567     0.181991     0.367892     0.1   
H1       H      0.320568     0.681992     0.367892     0.1   
H1       H      0.320568     0.181991     0.867892     0.1   
H1       H      0.820567     0.681992     0.867892     0.1   
H1       H      0.766939     0.166676     0.350955     0.1   
H1       H      0.266939     0.666676     0.350955     0.1   
H1       H      0.266939     0.166676     0.850954     0.1   
H1       H      0.766939     0.666676     0.850954     0.1   
H1       H      0.895516     0.353823     0.311969     0.1   
H1       H      0.395516     0.853824     0.311969     0.1   
H1       H      0.395516     0.353823     0.811968     0.1   
H1       H      0.895516     0.853824     0.811968     0.1   
H1       H      0.886714     0.0822309    0.427803     0.1   
H1       H      0.386713     0.582232     0.427803     0.1   
H1       H      0.386713     0.0822309    0.927804     0.1   
H1       H      0.886714     0.582232     0.927804     0.1   
H1       H      0.87474      0.123887     0.44422      0.1   
H1       H      0.374739     0.623888     0.44422      0.1   
H1       H      0.374739     0.123887     0.94422      0.1   
H1       H      0.87474      0.623888     0.94422      0.1   
H1       H      0.805918     0.262173     0.340729     0.1   
H1       H      0.305918     0.762172     0.340729     0.1   
H1       H      0.305918     0.262173     0.84073      0.1   
H1       H      0.805918     0.762172     0.84073      0.1   
H1       H      0.800852     0.15084      0.260072     0.1   
H1       H      0.300853     0.650839     0.260072     0.1   
H1       H      0.300853     0.15084      0.760071     0.1   
H1       H      0.800852     0.650839     0.760071     0.1   
Cr2      Cr     0.2726       0.0465999    0.4452       1.62  
Cr2      Cr     0.772599     0.546601     0.4452       1.62  
Cr2      Cr     0.772599     0.0465999    0.9452       1.62  
Cr2      Cr     0.2726       0.546601     0.9452       1.62  
Cr2      Cr     0.369699     0.16         0.4864       1.62  
Cr2      Cr     0.8697       0.660001     0.4864       1.62  
Cr2      Cr     0.8697       0.16         0.9864       1.62  
Cr2      Cr     0.369699     0.660001     0.9864       1.62  
O3       O      0.817099     0.4563       0.4043      -0.587 
O3       O      0.3171       0.9563       0.4043      -0.587 
O3       O      0.3171       0.4563       0.9043      -0.587 
O3       O      0.817099     0.9563       0.9043      -0.587 
O3       O      0.8356       0.435        0.3847      -0.587 
O3       O      0.335601     0.935        0.3847      -0.587 
O3       O      0.335601     0.435        0.8847      -0.587 
O3       O      0.8356       0.935        0.8847      -0.587 
O2       O      0.3765       0.0885006    0.4017      -0.731 
O2       O      0.876499     0.5885       0.4017      -0.731 
O2       O      0.876499     0.0885006    0.9017      -0.731 
O2       O      0.3765       0.5885       0.9017      -0.731 
O2       O      0.3999       0.1513       0.371601    -0.731 
O2       O      0.899899     0.6513       0.371601    -0.731 
O2       O      0.899899     0.1513       0.8716      -0.731 
O2       O      0.3999       0.6513       0.8716      -0.731 
O2       O      0.3846       0.116101     0.4096      -0.731 
O2       O      0.8846       0.6161       0.4096      -0.731 
O2       O      0.8846       0.116101     0.9096      -0.731 
O2       O      0.3846       0.6161       0.9096      -0.731 
O2       O      0.3009       0.0176996    0.423601    -0.731 
O2       O      0.8009       0.5177       0.423601    -0.731 
O2       O      0.8009       0.0176996    0.9236      -0.731 
O2       O      0.3009       0.5177       0.9236      -0.731 
O2       O      0.3391       0.0518999    0.438599    -0.731 
O2       O      0.8391       0.551901     0.438599    -0.731 
O2       O      0.8391       0.0518999    0.9386      -0.731 
O2       O      0.3391       0.551901     0.9386      -0.731 
O3       O      0.272001     0.0266001    0.4276      -0.587 
O3       O      0.772        0.526599     0.4276      -0.587 
O3       O      0.772        0.0266001    0.9276      -0.587 
O3       O      0.272001     0.526599     0.9276      -0.587 
O3       O      0.2842       0.4879       0.0277002   -0.587 
O3       O      0.784201     0.987899     0.0277002   -0.587 
O3       O      0.784201     0.4879       0.527699    -0.587 
O3       O      0.2842       0.987899     0.527699    -0.587 
O3       O      0.2747       0.0697998    0.4538      -0.587 
O3       O      0.774699     0.5698       0.4538      -0.587 
O3       O      0.774699     0.0697998    0.953801    -0.587 
O3       O      0.2747       0.5698       0.953801    -0.587 
O2       O      0.326099     0.0595001    0.4653      -0.731 
O2       O      0.8261       0.559499     0.4653      -0.731 
O2       O      0.8261       0.0595001    0.9653      -0.731 
O2       O      0.326099     0.559499     0.9653      -0.731 
O2       O      0.841599     0.196701     0.00130031  -0.731 
O2       O      0.3416       0.6967       0.00130031  -0.731 
O2       O      0.3416       0.196701     0.5013      -0.731 
O2       O      0.841599     0.6967       0.5013      -0.731 
O2       O      0.4726       0.179701     0.330201    -0.731 
O2       O      0.9726       0.6797       0.330201    -0.731 
O2       O      0.9726       0.179701     0.8302      -0.731 
O2       O      0.4726       0.6797       0.8302      -0.731 
O3       O      0.3688       0.1866       0.4901      -0.587 
O3       O      0.8688       0.686601     0.4901      -0.587 
O3       O      0.8688       0.1866       0.9901      -0.587 
O3       O      0.3688       0.686601     0.9901      -0.587 
O3       O      0.461801     0.1708       0.3593      -0.587 
O3       O      0.9618       0.670799     0.3593      -0.587 
O3       O      0.9618       0.1708       0.8593      -0.587 
O3       O      0.461801     0.670799     0.8593      -0.587 
O3       O      0.368401     0.1366       0.475       -0.587 
O3       O      0.8684       0.6366       0.475       -0.587 
O3       O      0.8684       0.1366       0.975001    -0.587 
O3       O      0.368401     0.6366       0.975001    -0.587 
O2       O      0.351501     0.1184       0.4932      -0.731 
O2       O      0.8515       0.6184       0.4932      -0.731 
O2       O      0.8515       0.1184       0.993199    -0.731 
O2       O      0.351501     0.6184       0.993199    -0.731 
F1       F      0.248601     0.0516997    0.4348      -0.566 
F1       F      0.7486       0.5517       0.4348      -0.566 
F1       F      0.7486       0.0516997    0.934801    -0.566 
F1       F      0.248601     0.5517       0.934801    -0.566 
F1       F      0.3925       0.1655       0.475699    -0.566 
F1       F      0.892499     0.665499     0.475699    -0.566 
F1       F      0.892499     0.1655       0.9757      -0.566 
F1       F      0.3925       0.665499     0.9757      -0.566 
C3       C      0.425        0.1683       0.3489       0.11  
C3       C      0.925        0.6683       0.3489       0.11  
C3       C      0.925        0.1683       0.848899     0.11  
C3       C      0.425        0.6683       0.848899     0.11  
C2       C      0.438401     0.1791       0.335601    -0.274 
C2       C      0.9384       0.679101     0.335601    -0.274 
C2       C      0.9384       0.1791       0.8356      -0.274 
C2       C      0.438401     0.679101     0.8356      -0.274 
C1       C      0.458501     0.1779       0.3423       0.848 
C1       C      0.9585       0.6779       0.3423       0.848 
C1       C      0.9585       0.1779       0.8423       0.848 
C1       C      0.458501     0.6779       0.8423       0.848 
C3       C      0.7908       0.4839       0.409999     0.11  
C3       C      0.2908       0.9839       0.409999     0.11  
C3       C      0.2908       0.4839       0.91         0.11  
C3       C      0.7908       0.9839       0.91         0.11  
C2       C      0.7775       0.4974       0.4134      -0.274 
C2       C      0.2775       0.997399     0.4134      -0.274 
C2       C      0.2775       0.4974       0.9134      -0.274 
C2       C      0.7775       0.997399     0.9134      -0.274 
C1       C      0.283799     0.0136999    0.4224       0.848 
C1       C      0.7838       0.513701     0.4224       0.848 
C1       C      0.7838       0.0136999    0.9224       0.848 
C1       C      0.283799     0.513701     0.9224       0.848 
C2       C      0.3519       0.0774       0.4531      -0.274 
C2       C      0.8519       0.577401     0.4531      -0.274 
C2       C      0.8519       0.0774       0.9531      -0.274 
C2       C      0.3519       0.577401     0.9531      -0.274 
C3       C      0.3551       0.0885006    0.4689       0.11  
C3       C      0.8551       0.5885       0.4689       0.11  
C3       C      0.8551       0.0885006    0.9689       0.11  
C3       C      0.3551       0.5885       0.9689       0.11  
C2       C      0.3639       0.106599     0.4656      -0.274 
C2       C      0.8639       0.6066       0.4656      -0.274 
C2       C      0.8639       0.106599     0.965599    -0.274 
C2       C      0.3639       0.6066       0.965599    -0.274 
C3       C      0.3702       0.1116       0.447099     0.11  
C3       C      0.870199     0.6116       0.447099     0.11  
C3       C      0.870199     0.1116       0.9471       0.11  
C3       C      0.3702       0.6116       0.9471       0.11  
C2       C      0.3699       0.0978003    0.4325      -0.274 
C2       C      0.8699       0.5978       0.4325      -0.274 
C2       C      0.8699       0.0978003    0.9325      -0.274 
C2       C      0.3699       0.5978       0.9325      -0.274 
C3       C      0.3638       0.0797002    0.437301     0.11  
C3       C      0.863799     0.5797       0.437301     0.11  
C3       C      0.863799     0.0797002    0.9373       0.11  
C3       C      0.3638       0.5797       0.9373       0.11  
C1       C      0.376999     0.101299     0.4137       0.848 
C1       C      0.877        0.6013       0.4137       0.848 
C1       C      0.877        0.101299     0.913699     0.848 
C1       C      0.376999     0.6013       0.913699     0.848 
C1       C      0.3608       0.121499     0.4783       0.848 
C1       C      0.8608       0.6215       0.4783       0.848 
C1       C      0.8608       0.121499     0.978299     0.848 
C1       C      0.3608       0.6215       0.978299     0.848 
C1       C      0.3386       0.0627002    0.452399     0.848 
C1       C      0.8386       0.562699     0.452399     0.848 
C1       C      0.8386       0.0627002    0.9524       0.848 
C1       C      0.3386       0.562699     0.9524       0.848 
C2       C      0.289099     0.128801     0.4847      -0.274 
C2       C      0.7891       0.6288       0.4847      -0.274 
C2       C      0.7891       0.128801     0.984699    -0.274 
C2       C      0.289099     0.6288       0.984699    -0.274 
C3       C      0.2907       0.106599     0.4824       0.11  
C3       C      0.790699     0.6066       0.4824       0.11  
C3       C      0.790699     0.106599     0.982401     0.11  
C3       C      0.2907       0.6066       0.982401     0.11  
C1       C      0.8604       0.1981       0.000500647  0.848 
C1       C      0.3604       0.6981       0.000500647  0.848 
C1       C      0.3604       0.1981       0.5005       0.848 
C1       C      0.8604       0.6981       0.5005       0.848 
H1       H      0.320568     0.0680084    0.382107     0.1   
H1       H      0.820567     0.568009     0.382107     0.1   
H1       H      0.820567     0.0680084    0.882108     0.1   
H1       H      0.320568     0.568009     0.882108     0.1   
H1       H      0.266939     0.0833241    0.399046     0.1   
H1       H      0.766939     0.583325     0.399046     0.1   
H1       H      0.766939     0.0833241    0.899045     0.1   
H1       H      0.266939     0.583325     0.899045     0.1   
H1       H      0.895516     0.396176     0.438032     0.1   
H1       H      0.395516     0.896177     0.438032     0.1   
H1       H      0.395516     0.396176     0.938032     0.1   
H1       H      0.895516     0.896177     0.938032     0.1   
H1       H      0.386713     0.167769     0.322196     0.1   
H1       H      0.886714     0.667768     0.322196     0.1   
H1       H      0.886714     0.167769     0.822196     0.1   
H1       H      0.386713     0.667768     0.822196     0.1   
H1       H      0.374739     0.126112     0.30578      0.1   
H1       H      0.87474      0.626112     0.30578      0.1   
H1       H      0.87474      0.126112     0.805779     0.1   
H1       H      0.374739     0.626112     0.805779     0.1   
H1       H      0.805918     0.487827     0.40927      0.1   
H1       H      0.305918     0.987827     0.40927      0.1   
H1       H      0.305918     0.487827     0.90927      0.1   
H1       H      0.805918     0.987827     0.90927      0.1   
H1       H      0.300853     0.099161     0.489929     0.1   
H1       H      0.800852     0.59916      0.489929     0.1   
H1       H      0.800852     0.099161     0.989928     0.1   
H1       H      0.300853     0.59916      0.989928     0.1   
Cr1      Cr     0.4774       0.0465999    0.304801     1.859 
Cr1      Cr     0.9774       0.546601     0.304801     1.859 
Cr1      Cr     0.9774       0.0465999    0.8048       1.859 
Cr1      Cr     0.4774       0.546601     0.8048       1.859 
Cr1      Cr     0.380299     0.16         0.263599     1.859 
Cr1      Cr     0.8803       0.660001     0.263599     1.859 
Cr1      Cr     0.8803       0.16         0.7636       1.859 
Cr1      Cr     0.380299     0.660001     0.7636       1.859 
O2       O      0.9329       0.4563       0.3457      -0.731 
O2       O      0.4329       0.9563       0.3457      -0.731 
O2       O      0.4329       0.4563       0.845699    -0.731 
O2       O      0.9329       0.9563       0.845699    -0.731 
O2       O      0.9144       0.435        0.365301    -0.731 
O2       O      0.4144       0.935        0.365301    -0.731 
O2       O      0.4144       0.435        0.8653      -0.731 
O2       O      0.9144       0.935        0.8653      -0.731 
O2       O      0.3735       0.0885006    0.348301    -0.731 
O2       O      0.8735       0.5885       0.348301    -0.731 
O2       O      0.8735       0.0885006    0.8483      -0.731 
O2       O      0.3735       0.5885       0.8483      -0.731 
O3       O      0.3501       0.1513       0.3784      -0.587 
O3       O      0.8501       0.6513       0.3784      -0.587 
O3       O      0.8501       0.1513       0.8784      -0.587 
O3       O      0.3501       0.6513       0.8784      -0.587 
O3       O      0.365399     0.116101     0.3404      -0.587 
O3       O      0.8654       0.6161       0.3404      -0.587 
O3       O      0.8654       0.116101     0.840401    -0.587 
O3       O      0.365399     0.6161       0.840401    -0.587 
O3       O      0.449101     0.0176996    0.3264      -0.587 
O3       O      0.9491       0.5177       0.3264      -0.587 
O3       O      0.9491       0.0176996    0.8264      -0.587 
O3       O      0.449101     0.5177       0.8264      -0.587 
O3       O      0.410901     0.0518999    0.3114      -0.587 
O3       O      0.9109       0.551901     0.3114      -0.587 
O3       O      0.9109       0.0518999    0.8114      -0.587 
O3       O      0.410901     0.551901     0.8114      -0.587 
O2       O      0.478        0.0266001    0.3224      -0.731 
O2       O      0.978        0.526599     0.3224      -0.731 
O2       O      0.978        0.0266001    0.822399    -0.731 
O2       O      0.478        0.526599     0.822399    -0.731 
O3       O      0.9658       0.4879       0.222299    -0.587 
O3       O      0.4658       0.987899     0.222299    -0.587 
O3       O      0.4658       0.4879       0.7223      -0.587 
O3       O      0.9658       0.987899     0.7223      -0.587 
O2       O      0.4753       0.0697998    0.2962      -0.731 
O2       O      0.9753       0.5698       0.2962      -0.731 
O2       O      0.9753       0.0697998    0.7962      -0.731 
O2       O      0.4753       0.5698       0.7962      -0.731 
O2       O      0.4239       0.0595001    0.284701    -0.731 
O2       O      0.9239       0.559499     0.284701    -0.731 
O2       O      0.9239       0.0595001    0.7847      -0.731 
O2       O      0.4239       0.559499     0.7847      -0.731 
O3       O      0.4084       0.196701     0.248699    -0.587 
O3       O      0.908399     0.6967       0.248699    -0.587 
O3       O      0.908399     0.196701     0.7487      -0.587 
O3       O      0.4084       0.6967       0.7487      -0.587 
O3       O      0.277399     0.179701     0.4198      -0.587 
O3       O      0.7774       0.6797       0.4198      -0.587 
O3       O      0.7774       0.179701     0.919801    -0.587 
O3       O      0.277399     0.6797       0.919801    -0.587 
O2       O      0.381201     0.1866       0.2599      -0.731 
O2       O      0.8812       0.686601     0.2599      -0.731 
O2       O      0.8812       0.1866       0.759899    -0.731 
O2       O      0.381201     0.686601     0.759899    -0.731 
O2       O      0.2882       0.1708       0.390701    -0.731 
O2       O      0.7882       0.670799     0.390701    -0.731 
O2       O      0.7882       0.1708       0.8907      -0.731 
O2       O      0.2882       0.670799     0.8907      -0.731 
O2       O      0.3816       0.1366       0.275       -0.731 
O2       O      0.8816       0.6366       0.275       -0.731 
O2       O      0.8816       0.1366       0.775       -0.731 
O2       O      0.3816       0.6366       0.775       -0.731 
O2       O      0.3985       0.1184       0.2568      -0.731 
O2       O      0.8985       0.6184       0.2568      -0.731 
O2       O      0.8985       0.1184       0.7568      -0.731 
O2       O      0.3985       0.6184       0.7568      -0.731 
C3       C      0.325001     0.1683       0.4011       0.11  
C3       C      0.825        0.6683       0.4011       0.11  
C3       C      0.825        0.1683       0.9011       0.11  
C3       C      0.325001     0.6683       0.9011       0.11  
C2       C      0.3116       0.1791       0.4144      -0.274 
C2       C      0.8116       0.679101     0.4144      -0.274 
C2       C      0.8116       0.1791       0.9144      -0.274 
C2       C      0.3116       0.679101     0.9144      -0.274 
C1       C      0.2915       0.1779       0.407701     0.848 
C1       C      0.791501     0.6779       0.407701     0.848 
C1       C      0.791501     0.1779       0.9077       0.848 
C1       C      0.2915       0.6779       0.9077       0.848 
C3       C      0.959199     0.4839       0.339999     0.11  
C3       C      0.4592       0.9839       0.339999     0.11  
C3       C      0.4592       0.4839       0.84         0.11  
C3       C      0.959199     0.9839       0.84         0.11  
C2       C      0.9725       0.4974       0.336601    -0.274 
C2       C      0.472499     0.997399     0.336601    -0.274 
C2       C      0.472499     0.4974       0.8366      -0.274 
C2       C      0.9725       0.997399     0.8366      -0.274 
C1       C      0.466199     0.0136999    0.3276       0.848 
C1       C      0.9662       0.513701     0.3276       0.848 
C1       C      0.9662       0.0136999    0.827601     0.848 
C1       C      0.466199     0.513701     0.827601     0.848 
C2       C      0.398101     0.0774       0.2969      -0.274 
C2       C      0.8981       0.577401     0.2969      -0.274 
C2       C      0.8981       0.0774       0.796901    -0.274 
C2       C      0.398101     0.577401     0.796901    -0.274 
C3       C      0.394901     0.0885006    0.2811       0.11  
C3       C      0.8949       0.5885       0.2811       0.11  
C3       C      0.8949       0.0885006    0.781099     0.11  
C3       C      0.394901     0.5885       0.781099     0.11  
C2       C      0.3861       0.106599     0.2844      -0.274 
C2       C      0.886099     0.6066       0.2844      -0.274 
C2       C      0.886099     0.106599     0.7844      -0.274 
C2       C      0.3861       0.6066       0.7844      -0.274 
C3       C      0.3798       0.1116       0.302899     0.11  
C3       C      0.8798       0.6116       0.302899     0.11  
C3       C      0.8798       0.1116       0.8029       0.11  
C3       C      0.3798       0.6116       0.8029       0.11  
C2       C      0.380101     0.0978003    0.317501    -0.274 
C2       C      0.8801       0.5978       0.317501    -0.274 
C2       C      0.8801       0.0978003    0.8175      -0.274 
C2       C      0.380101     0.5978       0.8175      -0.274 
C3       C      0.3862       0.0797002    0.3127       0.11  
C3       C      0.8862       0.5797       0.3127       0.11  
C3       C      0.8862       0.0797002    0.812701     0.11  
C3       C      0.3862       0.5797       0.812701     0.11  
C1       C      0.373        0.101299     0.3363       0.848 
C1       C      0.873        0.6013       0.3363       0.848 
C1       C      0.873        0.101299     0.836299     0.848 
C1       C      0.373        0.6013       0.836299     0.848 
C1       C      0.3892       0.121499     0.2717       0.848 
C1       C      0.889201     0.6215       0.2717       0.848 
C1       C      0.889201     0.121499     0.7717       0.848 
C1       C      0.3892       0.6215       0.7717       0.848 
C1       C      0.4114       0.0627002    0.2976       0.848 
C1       C      0.911401     0.562699     0.2976       0.848 
C1       C      0.911401     0.0627002    0.7976       0.848 
C1       C      0.4114       0.562699     0.7976       0.848 
C2       C      0.460899     0.128801     0.2653      -0.274 
C2       C      0.9609       0.6288       0.2653      -0.274 
C2       C      0.9609       0.128801     0.7653      -0.274 
C2       C      0.460899     0.6288       0.7653      -0.274 
C3       C      0.4593       0.106599     0.2676       0.11  
C3       C      0.959299     0.6066       0.2676       0.11  
C3       C      0.959299     0.106599     0.7676       0.11  
C3       C      0.4593       0.6066       0.7676       0.11  
C1       C      0.389601     0.1981       0.2495       0.848 
C1       C      0.8896       0.6981       0.2495       0.848 
C1       C      0.8896       0.1981       0.7495       0.848 
C1       C      0.389601     0.6981       0.7495       0.848 
H1       H      0.429433     0.0680084    0.367892     0.1   
H1       H      0.929434     0.568009     0.367892     0.1   
H1       H      0.929434     0.0680084    0.867892     0.1   
H1       H      0.429433     0.568009     0.867892     0.1   
H1       H      0.483061     0.0833241    0.350955     0.1   
H1       H      0.98306      0.583325     0.350955     0.1   
H1       H      0.98306      0.0833241    0.850954     0.1   
H1       H      0.483061     0.583325     0.850954     0.1   
H1       H      0.363286     0.167769     0.427803     0.1   
H1       H      0.863286     0.667768     0.427803     0.1   
H1       H      0.863286     0.167769     0.927804     0.1   
H1       H      0.363286     0.667768     0.927804     0.1   
H1       H      0.37526      0.126112     0.44422      0.1   
H1       H      0.875261     0.626112     0.44422      0.1   
H1       H      0.875261     0.126112     0.94422      0.1   
H1       H      0.37526      0.626112     0.94422      0.1   
H1       H      0.944083     0.487827     0.340729     0.1   
H1       H      0.444082     0.987827     0.340729     0.1   
H1       H      0.444082     0.487827     0.84073      0.1   
H1       H      0.944083     0.987827     0.84073      0.1   
H1       H      0.449147     0.099161     0.260072     0.1   
H1       H      0.949148     0.59916      0.260072     0.1   
H1       H      0.949148     0.099161     0.760071     0.1   
H1       H      0.449147     0.59916      0.760071     0.1   
Cr1      Cr     0.7034       0.304801     0.2726       1.859 
Cr1      Cr     0.2034       0.8048       0.2726       1.859 
Cr1      Cr     0.2034       0.304801     0.772599     1.859 
Cr1      Cr     0.7034       0.8048       0.772599     1.859 
Cr1      Cr     0.590001     0.263599     0.369699     1.859 
Cr1      Cr     0.0899998    0.7636       0.369699     1.859 
Cr1      Cr     0.0899998    0.263599     0.8697       1.859 
Cr1      Cr     0.590001     0.7636       0.8697       1.859 
O2       O      0.793701     0.3457       0.3171      -0.731 
O2       O      0.2937       0.845699     0.3171      -0.731 
O2       O      0.2937       0.3457       0.817099    -0.731 
O2       O      0.793701     0.845699     0.817099    -0.731 
O2       O      0.814999     0.365301     0.335601    -0.731 
O2       O      0.315        0.8653       0.335601    -0.731 
O2       O      0.315        0.365301     0.8356      -0.731 
O2       O      0.814999     0.8653       0.8356      -0.731 
O2       O      0.6615       0.348301     0.3765      -0.731 
O2       O      0.1615       0.8483       0.3765      -0.731 
O2       O      0.1615       0.348301     0.876499    -0.731 
O2       O      0.6615       0.8483       0.876499    -0.731 
O3       O      0.598699     0.3784       0.3999      -0.587 
O3       O      0.0987001    0.8784       0.3999      -0.587 
O3       O      0.0987001    0.3784       0.899899    -0.587 
O3       O      0.598699     0.8784       0.899899    -0.587 
O3       O      0.6339       0.3404       0.3846      -0.587 
O3       O      0.1339       0.840401     0.3846      -0.587 
O3       O      0.1339       0.3404       0.8846      -0.587 
O3       O      0.6339       0.840401     0.8846      -0.587 
O3       O      0.732299     0.3264       0.3009      -0.587 
O3       O      0.2323       0.8264       0.3009      -0.587 
O3       O      0.2323       0.3264       0.8009      -0.587 
O3       O      0.732299     0.8264       0.8009      -0.587 
O3       O      0.6981       0.3114       0.3391      -0.587 
O3       O      0.1981       0.8114       0.3391      -0.587 
O3       O      0.1981       0.3114       0.8391      -0.587 
O3       O      0.6981       0.8114       0.8391      -0.587 
O2       O      0.7234       0.3224       0.272001    -0.731 
O2       O      0.2234       0.822399     0.272001    -0.731 
O2       O      0.2234       0.3224       0.772       -0.731 
O2       O      0.7234       0.822399     0.772       -0.731 
O2       O      0.7621       0.222299     0.2842      -0.731 
O2       O      0.2621       0.7223       0.2842      -0.731 
O2       O      0.2621       0.222299     0.784201    -0.731 
O2       O      0.7621       0.7223       0.784201    -0.731 
O2       O      0.680201     0.2962       0.2747      -0.731 
O2       O      0.1802       0.7962       0.2747      -0.731 
O2       O      0.1802       0.2962       0.774699    -0.731 
O2       O      0.680201     0.7962       0.774699    -0.731 
O2       O      0.6905       0.284701     0.326099    -0.731 
O2       O      0.1905       0.7847       0.326099    -0.731 
O2       O      0.1905       0.284701     0.8261      -0.731 
O2       O      0.6905       0.7847       0.8261      -0.731 
O3       O      0.5533       0.248699     0.3416      -0.587 
O3       O      0.0533004    0.7487       0.3416      -0.587 
O3       O      0.0533004    0.248699     0.841599    -0.587 
O3       O      0.5533       0.7487       0.841599    -0.587 
O3       O      0.5703       0.4198       0.4726      -0.587 
O3       O      0.0703004    0.919801     0.4726      -0.587 
O3       O      0.0703004    0.4198       0.9726      -0.587 
O3       O      0.5703       0.919801     0.9726      -0.587 
O2       O      0.5634       0.2599       0.3688      -0.731 
O2       O      0.0633997    0.759899     0.3688      -0.731 
O2       O      0.0633997    0.2599       0.8688      -0.731 
O2       O      0.5634       0.759899     0.8688      -0.731 
O2       O      0.5792       0.390701     0.461801    -0.731 
O2       O      0.0791996    0.8907       0.461801    -0.731 
O2       O      0.0791996    0.390701     0.9618      -0.731 
O2       O      0.5792       0.8907       0.9618      -0.731 
O2       O      0.613401     0.275        0.368401    -0.731 
O2       O      0.1134       0.775        0.368401    -0.731 
O2       O      0.1134       0.275        0.8684      -0.731 
O2       O      0.613401     0.775        0.8684      -0.731 
O2       O      0.631599     0.2568       0.351501    -0.731 
O2       O      0.1316       0.7568       0.351501    -0.731 
O2       O      0.1316       0.2568       0.8515      -0.731 
O2       O      0.631599     0.7568       0.8515      -0.731 
C3       C      0.581699     0.4011       0.425        0.11  
C3       C      0.0817001    0.9011       0.425        0.11  
C3       C      0.0817001    0.4011       0.925        0.11  
C3       C      0.581699     0.9011       0.925        0.11  
C2       C      0.5709       0.4144       0.438401    -0.274 
C2       C      0.0708998    0.9144       0.438401    -0.274 
C2       C      0.0708998    0.4144       0.9384      -0.274 
C2       C      0.5709       0.9144       0.9384      -0.274 
C1       C      0.572101     0.407701     0.458501     0.848 
C1       C      0.0721       0.9077       0.458501     0.848 
C1       C      0.0721       0.407701     0.9585       0.848 
C1       C      0.572101     0.9077       0.9585       0.848 
C3       C      0.766101     0.339999     0.2908       0.11  
C3       C      0.2661       0.84         0.2908       0.11  
C3       C      0.2661       0.339999     0.7908       0.11  
C3       C      0.766101     0.84         0.7908       0.11  
C2       C      0.7526       0.336601     0.2775      -0.274 
C2       C      0.2526       0.8366       0.2775      -0.274 
C2       C      0.2526       0.336601     0.7775      -0.274 
C2       C      0.7526       0.8366       0.7775      -0.274 
C1       C      0.7363       0.3276       0.283799     0.848 
C1       C      0.2363       0.827601     0.283799     0.848 
C1       C      0.2363       0.3276       0.7838       0.848 
C1       C      0.7363       0.827601     0.7838       0.848 
C2       C      0.6726       0.2969       0.3519      -0.274 
C2       C      0.1726       0.796901     0.3519      -0.274 
C2       C      0.1726       0.2969       0.8519      -0.274 
C2       C      0.6726       0.796901     0.8519      -0.274 
C3       C      0.6615       0.2811       0.3551       0.11  
C3       C      0.1615       0.781099     0.3551       0.11  
C3       C      0.1615       0.2811       0.8551       0.11  
C3       C      0.6615       0.781099     0.8551       0.11  
C2       C      0.6434       0.2844       0.3639      -0.274 
C2       C      0.1434       0.7844       0.3639      -0.274 
C2       C      0.1434       0.2844       0.8639      -0.274 
C2       C      0.6434       0.7844       0.8639      -0.274 
C3       C      0.6384       0.302899     0.3702       0.11  
C3       C      0.138399     0.8029       0.3702       0.11  
C3       C      0.138399     0.302899     0.870199     0.11  
C3       C      0.6384       0.8029       0.870199     0.11  
C2       C      0.6522       0.317501     0.3699      -0.274 
C2       C      0.152199     0.8175       0.3699      -0.274 
C2       C      0.152199     0.317501     0.8699      -0.274 
C2       C      0.6522       0.8175       0.8699      -0.274 
C3       C      0.6703       0.3127       0.3638       0.11  
C3       C      0.170299     0.812701     0.3638       0.11  
C3       C      0.170299     0.3127       0.863799     0.11  
C3       C      0.6703       0.812701     0.863799     0.11  
C1       C      0.6487       0.3363       0.376999     0.848 
C1       C      0.1487       0.836299     0.376999     0.848 
C1       C      0.1487       0.3363       0.877        0.848 
C1       C      0.6487       0.836299     0.877        0.848 
C1       C      0.6285       0.2717       0.3608       0.848 
C1       C      0.1285       0.7717       0.3608       0.848 
C1       C      0.1285       0.2717       0.8608       0.848 
C1       C      0.6285       0.7717       0.8608       0.848 
C1       C      0.6873       0.2976       0.3386       0.848 
C1       C      0.187299     0.7976       0.3386       0.848 
C1       C      0.187299     0.2976       0.8386       0.848 
C1       C      0.6873       0.7976       0.8386       0.848 
C2       C      0.6212       0.2653       0.289099    -0.274 
C2       C      0.1212       0.7653       0.289099    -0.274 
C2       C      0.1212       0.2653       0.7891      -0.274 
C2       C      0.6212       0.7653       0.7891      -0.274 
C3       C      0.6434       0.2676       0.2907       0.11  
C3       C      0.1434       0.7676       0.2907       0.11  
C3       C      0.1434       0.2676       0.790699     0.11  
C3       C      0.6434       0.7676       0.790699     0.11  
C1       C      0.551901     0.2495       0.3604       0.848 
C1       C      0.0518999    0.7495       0.3604       0.848 
C1       C      0.0518999    0.2495       0.8604       0.848 
C1       C      0.551901     0.7495       0.8604       0.848 
H1       H      0.681992     0.367892     0.320568     0.1   
H1       H      0.181991     0.867892     0.320568     0.1   
H1       H      0.181991     0.367892     0.820567     0.1   
H1       H      0.681992     0.867892     0.820567     0.1   
H1       H      0.666676     0.350955     0.266939     0.1   
H1       H      0.166676     0.850954     0.266939     0.1   
H1       H      0.166676     0.350955     0.766939     0.1   
H1       H      0.666676     0.850954     0.766939     0.1   
H1       H      0.853824     0.311969     0.395516     0.1   
H1       H      0.353823     0.811968     0.395516     0.1   
H1       H      0.353823     0.311969     0.895516     0.1   
H1       H      0.853824     0.811968     0.895516     0.1   
H1       H      0.582232     0.427803     0.386713     0.1   
H1       H      0.0822309    0.927804     0.386713     0.1   
H1       H      0.0822309    0.427803     0.886714     0.1   
H1       H      0.582232     0.927804     0.886714     0.1   
H1       H      0.623888     0.44422      0.374739     0.1   
H1       H      0.123887     0.94422      0.374739     0.1   
H1       H      0.123887     0.44422      0.87474      0.1   
H1       H      0.623888     0.94422      0.87474      0.1   
H1       H      0.762172     0.340729     0.305918     0.1   
H1       H      0.262173     0.84073      0.305918     0.1   
H1       H      0.262173     0.340729     0.805918     0.1   
H1       H      0.762172     0.84073      0.805918     0.1   
H1       H      0.650839     0.260072     0.300853     0.1   
H1       H      0.15084      0.760071     0.300853     0.1   
H1       H      0.15084      0.260072     0.800852     0.1   
H1       H      0.650839     0.760071     0.800852     0.1   
Cr2      Cr     0.7034       0.4452       0.4774       1.62  
Cr2      Cr     0.2034       0.9452       0.4774       1.62  
Cr2      Cr     0.2034       0.4452       0.9774       1.62  
Cr2      Cr     0.7034       0.9452       0.9774       1.62  
Cr2      Cr     0.590001     0.4864       0.380299     1.62  
Cr2      Cr     0.0899998    0.9864       0.380299     1.62  
Cr2      Cr     0.0899998    0.4864       0.8803       1.62  
Cr2      Cr     0.590001     0.9864       0.8803       1.62  
O2       O      0.793701     0.4043       0.4329      -0.731 
O2       O      0.2937       0.9043       0.4329      -0.731 
O2       O      0.2937       0.4043       0.9329      -0.731 
O2       O      0.793701     0.9043       0.9329      -0.731 
O2       O      0.814999     0.3847       0.4144      -0.731 
O2       O      0.315        0.8847       0.4144      -0.731 
O2       O      0.315        0.3847       0.9144      -0.731 
O2       O      0.814999     0.8847       0.9144      -0.731 
O2       O      0.6615       0.4017       0.3735      -0.731 
O2       O      0.1615       0.9017       0.3735      -0.731 
O2       O      0.1615       0.4017       0.8735      -0.731 
O2       O      0.6615       0.9017       0.8735      -0.731 
O2       O      0.598699     0.371601     0.3501      -0.731 
O2       O      0.0987001    0.8716       0.3501      -0.731 
O2       O      0.0987001    0.371601     0.8501      -0.731 
O2       O      0.598699     0.8716       0.8501      -0.731 
O2       O      0.6339       0.4096       0.365399    -0.731 
O2       O      0.1339       0.9096       0.365399    -0.731 
O2       O      0.1339       0.4096       0.8654      -0.731 
O2       O      0.6339       0.9096       0.8654      -0.731 
O2       O      0.732299     0.423601     0.449101    -0.731 
O2       O      0.2323       0.9236       0.449101    -0.731 
O2       O      0.2323       0.423601     0.9491      -0.731 
O2       O      0.732299     0.9236       0.9491      -0.731 
O2       O      0.6981       0.438599     0.410901    -0.731 
O2       O      0.1981       0.9386       0.410901    -0.731 
O2       O      0.1981       0.438599     0.9109      -0.731 
O2       O      0.6981       0.9386       0.9109      -0.731 
O3       O      0.7234       0.4276       0.478       -0.587 
O3       O      0.2234       0.9276       0.478       -0.587 
O3       O      0.2234       0.4276       0.978       -0.587 
O3       O      0.7234       0.9276       0.978       -0.587 
O3       O      0.2621       0.0277002    0.4658      -0.587 
O3       O      0.7621       0.527699     0.4658      -0.587 
O3       O      0.7621       0.0277002    0.9658      -0.587 
O3       O      0.2621       0.527699     0.9658      -0.587 
O3       O      0.680201     0.4538       0.4753      -0.587 
O3       O      0.1802       0.953801     0.4753      -0.587 
O3       O      0.1802       0.4538       0.9753      -0.587 
O3       O      0.680201     0.953801     0.9753      -0.587 
O2       O      0.6905       0.4653       0.4239      -0.731 
O2       O      0.1905       0.9653       0.4239      -0.731 
O2       O      0.1905       0.4653       0.9239      -0.731 
O2       O      0.6905       0.9653       0.9239      -0.731 
O2       O      0.0533004    0.00130031   0.4084      -0.731 
O2       O      0.5533       0.5013       0.4084      -0.731 
O2       O      0.5533       0.00130031   0.908399    -0.731 
O2       O      0.0533004    0.5013       0.908399    -0.731 
O2       O      0.5703       0.330201     0.277399    -0.731 
O2       O      0.0703004    0.8302       0.277399    -0.731 
O2       O      0.0703004    0.330201     0.7774      -0.731 
O2       O      0.5703       0.8302       0.7774      -0.731 
O3       O      0.5634       0.4901       0.381201    -0.587 
O3       O      0.0633997    0.9901       0.381201    -0.587 
O3       O      0.0633997    0.4901       0.8812      -0.587 
O3       O      0.5634       0.9901       0.8812      -0.587 
O2       O      0.5792       0.3593       0.2882      -0.731 
O2       O      0.0791996    0.8593       0.2882      -0.731 
O2       O      0.0791996    0.3593       0.7882      -0.731 
O2       O      0.5792       0.8593       0.7882      -0.731 
O3       O      0.613401     0.475        0.3816      -0.587 
O3       O      0.1134       0.975001     0.3816      -0.587 
O3       O      0.1134       0.475        0.8816      -0.587 
O3       O      0.613401     0.975001     0.8816      -0.587 
O2       O      0.631599     0.4932       0.3985      -0.731 
O2       O      0.1316       0.993199     0.3985      -0.731 
O2       O      0.1316       0.4932       0.8985      -0.731 
O2       O      0.631599     0.993199     0.8985      -0.731 
F1       F      0.1983       0.4348       0.00140044  -0.566 
F1       F      0.698299     0.934801     0.00140044  -0.566 
F1       F      0.698299     0.4348       0.5014      -0.566 
F1       F      0.1983       0.934801     0.5014      -0.566 
F1       F      0.5845       0.475699     0.3575      -0.566 
F1       F      0.0844996    0.9757       0.3575      -0.566 
F1       F      0.0844996    0.475699     0.857499    -0.566 
F1       F      0.5845       0.9757       0.857499    -0.566 
C3       C      0.581699     0.3489       0.325001     0.11  
C3       C      0.0817001    0.848899     0.325001     0.11  
C3       C      0.0817001    0.3489       0.825        0.11  
C3       C      0.581699     0.848899     0.825        0.11  
C2       C      0.5709       0.335601     0.3116      -0.274 
C2       C      0.0708998    0.8356       0.3116      -0.274 
C2       C      0.0708998    0.335601     0.8116      -0.274 
C2       C      0.5709       0.8356       0.8116      -0.274 
C1       C      0.572101     0.3423       0.2915       0.848 
C1       C      0.0721       0.8423       0.2915       0.848 
C1       C      0.0721       0.3423       0.791501     0.848 
C1       C      0.572101     0.8423       0.791501     0.848 
C3       C      0.766101     0.409999     0.4592       0.11  
C3       C      0.2661       0.91         0.4592       0.11  
C3       C      0.2661       0.409999     0.959199     0.11  
C3       C      0.766101     0.91         0.959199     0.11  
C2       C      0.7526       0.4134       0.472499    -0.274 
C2       C      0.2526       0.9134       0.472499    -0.274 
C2       C      0.2526       0.4134       0.9725      -0.274 
C2       C      0.7526       0.9134       0.9725      -0.274 
C1       C      0.7363       0.4224       0.466199     0.848 
C1       C      0.2363       0.9224       0.466199     0.848 
C1       C      0.2363       0.4224       0.9662       0.848 
C1       C      0.7363       0.9224       0.9662       0.848 
C2       C      0.6726       0.4531       0.398101    -0.274 
C2       C      0.1726       0.9531       0.398101    -0.274 
C2       C      0.1726       0.4531       0.8981      -0.274 
C2       C      0.6726       0.9531       0.8981      -0.274 
C3       C      0.6615       0.4689       0.394901     0.11  
C3       C      0.1615       0.9689       0.394901     0.11  
C3       C      0.1615       0.4689       0.8949       0.11  
C3       C      0.6615       0.9689       0.8949       0.11  
C2       C      0.6434       0.4656       0.3861      -0.274 
C2       C      0.1434       0.965599     0.3861      -0.274 
C2       C      0.1434       0.4656       0.886099    -0.274 
C2       C      0.6434       0.965599     0.886099    -0.274 
C3       C      0.6384       0.447099     0.3798       0.11  
C3       C      0.138399     0.9471       0.3798       0.11  
C3       C      0.138399     0.447099     0.8798       0.11  
C3       C      0.6384       0.9471       0.8798       0.11  
C2       C      0.6522       0.4325       0.380101    -0.274 
C2       C      0.152199     0.9325       0.380101    -0.274 
C2       C      0.152199     0.4325       0.8801      -0.274 
C2       C      0.6522       0.9325       0.8801      -0.274 
C3       C      0.6703       0.437301     0.3862       0.11  
C3       C      0.170299     0.9373       0.3862       0.11  
C3       C      0.170299     0.437301     0.8862       0.11  
C3       C      0.6703       0.9373       0.8862       0.11  
C1       C      0.6487       0.4137       0.373        0.848 
C1       C      0.1487       0.913699     0.373        0.848 
C1       C      0.1487       0.4137       0.873        0.848 
C1       C      0.6487       0.913699     0.873        0.848 
C1       C      0.6285       0.4783       0.3892       0.848 
C1       C      0.1285       0.978299     0.3892       0.848 
C1       C      0.1285       0.4783       0.889201     0.848 
C1       C      0.6285       0.978299     0.889201     0.848 
C1       C      0.6873       0.452399     0.4114       0.848 
C1       C      0.187299     0.9524       0.4114       0.848 
C1       C      0.187299     0.452399     0.911401     0.848 
C1       C      0.6873       0.9524       0.911401     0.848 
C2       C      0.6212       0.4847       0.460899    -0.274 
C2       C      0.1212       0.984699     0.460899    -0.274 
C2       C      0.1212       0.4847       0.9609      -0.274 
C2       C      0.6212       0.984699     0.9609      -0.274 
C3       C      0.6434       0.4824       0.4593       0.11  
C3       C      0.1434       0.982401     0.4593       0.11  
C3       C      0.1434       0.4824       0.959299     0.11  
C3       C      0.6434       0.982401     0.959299     0.11  
C1       C      0.0518999    0.000500647  0.389601     0.848 
C1       C      0.551901     0.5005       0.389601     0.848 
C1       C      0.551901     0.000500647  0.8896       0.848 
C1       C      0.0518999    0.5005       0.8896       0.848 
H1       H      0.681992     0.382107     0.429433     0.1   
H1       H      0.181991     0.882108     0.429433     0.1   
H1       H      0.181991     0.382107     0.929434     0.1   
H1       H      0.681992     0.882108     0.929434     0.1   
H1       H      0.666676     0.399046     0.483061     0.1   
H1       H      0.166676     0.899045     0.483061     0.1   
H1       H      0.166676     0.399046     0.98306      0.1   
H1       H      0.666676     0.899045     0.98306      0.1   
H1       H      0.853824     0.438032     0.354484     0.1   
H1       H      0.353823     0.938032     0.354484     0.1   
H1       H      0.353823     0.438032     0.854483     0.1   
H1       H      0.853824     0.938032     0.854483     0.1   
H1       H      0.582232     0.322196     0.363286     0.1   
H1       H      0.0822309    0.822196     0.363286     0.1   
H1       H      0.0822309    0.322196     0.863286     0.1   
H1       H      0.582232     0.822196     0.863286     0.1   
H1       H      0.623888     0.30578      0.37526      0.1   
H1       H      0.123887     0.805779     0.37526      0.1   
H1       H      0.123887     0.30578      0.875261     0.1   
H1       H      0.623888     0.805779     0.875261     0.1   
H1       H      0.762172     0.40927      0.444082     0.1   
H1       H      0.262173     0.90927      0.444082     0.1   
H1       H      0.262173     0.40927      0.944083     0.1   
H1       H      0.762172     0.90927      0.944083     0.1   
H1       H      0.650839     0.489929     0.449147     0.1   
H1       H      0.15084      0.989928     0.449147     0.1   
H1       H      0.15084      0.489929     0.949148     0.1   
H1       H      0.650839     0.989928     0.949148     0.1   
Cr2      Cr     0.0465999    0.304801     0.4774       1.62  
Cr2      Cr     0.546601     0.8048       0.4774       1.62  
Cr2      Cr     0.546601     0.304801     0.9774       1.62  
Cr2      Cr     0.0465999    0.8048       0.9774       1.62  
Cr1      Cr     0.16         0.263599     0.380299     1.859 
Cr1      Cr     0.660001     0.7636       0.380299     1.859 
Cr1      Cr     0.660001     0.263599     0.8803       1.859 
Cr1      Cr     0.16         0.7636       0.8803       1.859 
O3       O      0.9563       0.3457       0.4329      -0.587 
O3       O      0.4563       0.845699     0.4329      -0.587 
O3       O      0.4563       0.3457       0.9329      -0.587 
O3       O      0.9563       0.845699     0.9329      -0.587 
O3       O      0.935        0.365301     0.4144      -0.587 
O3       O      0.435        0.8653       0.4144      -0.587 
O3       O      0.435        0.365301     0.9144      -0.587 
O3       O      0.935        0.8653       0.9144      -0.587 
O2       O      0.0885006    0.348301     0.3735      -0.731 
O2       O      0.5885       0.8483       0.3735      -0.731 
O2       O      0.5885       0.348301     0.8735      -0.731 
O2       O      0.0885006    0.8483       0.8735      -0.731 
O2       O      0.1513       0.3784       0.3501      -0.731 
O2       O      0.6513       0.8784       0.3501      -0.731 
O2       O      0.6513       0.3784       0.8501      -0.731 
O2       O      0.1513       0.8784       0.8501      -0.731 
O2       O      0.116101     0.3404       0.365399    -0.731 
O2       O      0.6161       0.840401     0.365399    -0.731 
O2       O      0.6161       0.3404       0.8654      -0.731 
O2       O      0.116101     0.840401     0.8654      -0.731 
O2       O      0.0176996    0.3264       0.449101    -0.731 
O2       O      0.5177       0.8264       0.449101    -0.731 
O2       O      0.5177       0.3264       0.9491      -0.731 
O2       O      0.0176996    0.8264       0.9491      -0.731 
O2       O      0.0518999    0.3114       0.410901    -0.731 
O2       O      0.551901     0.8114       0.410901    -0.731 
O2       O      0.551901     0.3114       0.9109      -0.731 
O2       O      0.0518999    0.8114       0.9109      -0.731 
O3       O      0.0266001    0.3224       0.478       -0.587 
O3       O      0.526599     0.822399     0.478       -0.587 
O3       O      0.526599     0.3224       0.978       -0.587 
O3       O      0.0266001    0.822399     0.978       -0.587 
O2       O      0.987899     0.222299     0.4658      -0.731 
O2       O      0.4879       0.7223       0.4658      -0.731 
O2       O      0.4879       0.222299     0.9658      -0.731 
O2       O      0.987899     0.7223       0.9658      -0.731 
O3       O      0.0697998    0.2962       0.4753      -0.587 
O3       O      0.5698       0.7962       0.4753      -0.587 
O3       O      0.5698       0.2962       0.9753      -0.587 
O3       O      0.0697998    0.7962       0.9753      -0.587 
O2       O      0.0595001    0.284701     0.4239      -0.731 
O2       O      0.559499     0.7847       0.4239      -0.731 
O2       O      0.559499     0.284701     0.9239      -0.731 
O2       O      0.0595001    0.7847       0.9239      -0.731 
O2       O      0.196701     0.248699     0.4084      -0.731 
O2       O      0.6967       0.7487       0.4084      -0.731 
O2       O      0.6967       0.248699     0.908399    -0.731 
O2       O      0.196701     0.7487       0.908399    -0.731 
O2       O      0.179701     0.4198       0.277399    -0.731 
O2       O      0.6797       0.919801     0.277399    -0.731 
O2       O      0.6797       0.4198       0.7774      -0.731 
O2       O      0.179701     0.919801     0.7774      -0.731 
O2       O      0.1866       0.2599       0.381201    -0.731 
O2       O      0.686601     0.759899     0.381201    -0.731 
O2       O      0.686601     0.2599       0.8812      -0.731 
O2       O      0.1866       0.759899     0.8812      -0.731 
O3       O      0.1708       0.390701     0.2882      -0.587 
O3       O      0.670799     0.8907       0.2882      -0.587 
O3       O      0.670799     0.390701     0.7882      -0.587 
O3       O      0.1708       0.8907       0.7882      -0.587 
O2       O      0.1366       0.275        0.3816      -0.731 
O2       O      0.6366       0.775        0.3816      -0.731 
O2       O      0.6366       0.275        0.8816      -0.731 
O2       O      0.1366       0.775        0.8816      -0.731 
O2       O      0.1184       0.2568       0.3985      -0.731 
O2       O      0.6184       0.7568       0.3985      -0.731 
O2       O      0.6184       0.2568       0.8985      -0.731 
O2       O      0.1184       0.7568       0.8985      -0.731 
F1       F      0.5517       0.3152       0.00140044  -0.566 
F1       F      0.0516997    0.8152       0.00140044  -0.566 
F1       F      0.0516997    0.3152       0.5014      -0.566 
F1       F      0.5517       0.8152       0.5014      -0.566 
C3       C      0.1683       0.4011       0.325001     0.11  
C3       C      0.6683       0.9011       0.325001     0.11  
C3       C      0.6683       0.4011       0.825        0.11  
C3       C      0.1683       0.9011       0.825        0.11  
C2       C      0.1791       0.4144       0.3116      -0.274 
C2       C      0.679101     0.9144       0.3116      -0.274 
C2       C      0.679101     0.4144       0.8116      -0.274 
C2       C      0.1791       0.9144       0.8116      -0.274 
C1       C      0.1779       0.407701     0.2915       0.848 
C1       C      0.6779       0.9077       0.2915       0.848 
C1       C      0.6779       0.407701     0.791501     0.848 
C1       C      0.1779       0.9077       0.791501     0.848 
C3       C      0.9839       0.339999     0.4592       0.11  
C3       C      0.4839       0.84         0.4592       0.11  
C3       C      0.4839       0.339999     0.959199     0.11  
C3       C      0.9839       0.84         0.959199     0.11  
C2       C      0.997399     0.336601     0.472499    -0.274 
C2       C      0.4974       0.8366       0.472499    -0.274 
C2       C      0.4974       0.336601     0.9725      -0.274 
C2       C      0.997399     0.8366       0.9725      -0.274 
C1       C      0.0136999    0.3276       0.466199     0.848 
C1       C      0.513701     0.827601     0.466199     0.848 
C1       C      0.513701     0.3276       0.9662       0.848 
C1       C      0.0136999    0.827601     0.9662       0.848 
C2       C      0.0774       0.2969       0.398101    -0.274 
C2       C      0.577401     0.796901     0.398101    -0.274 
C2       C      0.577401     0.2969       0.8981      -0.274 
C2       C      0.0774       0.796901     0.8981      -0.274 
C3       C      0.0885006    0.2811       0.394901     0.11  
C3       C      0.5885       0.781099     0.394901     0.11  
C3       C      0.5885       0.2811       0.8949       0.11  
C3       C      0.0885006    0.781099     0.8949       0.11  
C2       C      0.106599     0.2844       0.3861      -0.274 
C2       C      0.6066       0.7844       0.3861      -0.274 
C2       C      0.6066       0.2844       0.886099    -0.274 
C2       C      0.106599     0.7844       0.886099    -0.274 
C3       C      0.1116       0.302899     0.3798       0.11  
C3       C      0.6116       0.8029       0.3798       0.11  
C3       C      0.6116       0.302899     0.8798       0.11  
C3       C      0.1116       0.8029       0.8798       0.11  
C2       C      0.0978003    0.317501     0.380101    -0.274 
C2       C      0.5978       0.8175       0.380101    -0.274 
C2       C      0.5978       0.317501     0.8801      -0.274 
C2       C      0.0978003    0.8175       0.8801      -0.274 
C3       C      0.0797002    0.3127       0.3862       0.11  
C3       C      0.5797       0.812701     0.3862       0.11  
C3       C      0.5797       0.3127       0.8862       0.11  
C3       C      0.0797002    0.812701     0.8862       0.11  
C1       C      0.101299     0.3363       0.373        0.848 
C1       C      0.6013       0.836299     0.373        0.848 
C1       C      0.6013       0.3363       0.873        0.848 
C1       C      0.101299     0.836299     0.873        0.848 
C1       C      0.121499     0.2717       0.3892       0.848 
C1       C      0.6215       0.7717       0.3892       0.848 
C1       C      0.6215       0.2717       0.889201     0.848 
C1       C      0.121499     0.7717       0.889201     0.848 
C1       C      0.0627002    0.2976       0.4114       0.848 
C1       C      0.562699     0.7976       0.4114       0.848 
C1       C      0.562699     0.2976       0.911401     0.848 
C1       C      0.0627002    0.7976       0.911401     0.848 
C2       C      0.128801     0.2653       0.460899    -0.274 
C2       C      0.6288       0.7653       0.460899    -0.274 
C2       C      0.6288       0.2653       0.9609      -0.274 
C2       C      0.128801     0.7653       0.9609      -0.274 
C3       C      0.106599     0.2676       0.4593       0.11  
C3       C      0.6066       0.7676       0.4593       0.11  
C3       C      0.6066       0.2676       0.959299     0.11  
C3       C      0.106599     0.7676       0.959299     0.11  
C1       C      0.1981       0.2495       0.389601     0.848 
C1       C      0.6981       0.7495       0.389601     0.848 
C1       C      0.6981       0.2495       0.8896       0.848 
C1       C      0.1981       0.7495       0.8896       0.848 
H1       H      0.0680084    0.367892     0.429433     0.1   
H1       H      0.568009     0.867892     0.429433     0.1   
H1       H      0.568009     0.367892     0.929434     0.1   
H1       H      0.0680084    0.867892     0.929434     0.1   
H1       H      0.0833241    0.350955     0.483061     0.1   
H1       H      0.583325     0.850954     0.483061     0.1   
H1       H      0.583325     0.350955     0.98306      0.1   
H1       H      0.0833241    0.850954     0.98306      0.1   
H1       H      0.167769     0.427803     0.363286     0.1   
H1       H      0.667768     0.927804     0.363286     0.1   
H1       H      0.667768     0.427803     0.863286     0.1   
H1       H      0.167769     0.927804     0.863286     0.1   
H1       H      0.126112     0.44422      0.37526      0.1   
H1       H      0.626112     0.94422      0.37526      0.1   
H1       H      0.626112     0.44422      0.875261     0.1   
H1       H      0.126112     0.94422      0.875261     0.1   
H1       H      0.987827     0.340729     0.444082     0.1   
H1       H      0.487827     0.84073      0.444082     0.1   
H1       H      0.487827     0.340729     0.944083     0.1   
H1       H      0.987827     0.84073      0.944083     0.1   
H1       H      0.099161     0.260072     0.449147     0.1   
H1       H      0.59916      0.760071     0.449147     0.1   
H1       H      0.59916      0.260072     0.949148     0.1   
H1       H      0.099161     0.760071     0.949148     0.1   
Cr1      Cr     0.0465999    0.4452       0.2726       1.859 
Cr1      Cr     0.546601     0.9452       0.2726       1.859 
Cr1      Cr     0.546601     0.4452       0.772599     1.859 
Cr1      Cr     0.0465999    0.9452       0.772599     1.859 
Cr1      Cr     0.16         0.4864       0.369699     1.859 
Cr1      Cr     0.660001     0.9864       0.369699     1.859 
Cr1      Cr     0.660001     0.4864       0.8697       1.859 
Cr1      Cr     0.16         0.9864       0.8697       1.859 
O2       O      0.9563       0.4043       0.3171      -0.731 
O2       O      0.4563       0.9043       0.3171      -0.731 
O2       O      0.4563       0.4043       0.817099    -0.731 
O2       O      0.9563       0.9043       0.817099    -0.731 
O2       O      0.935        0.3847       0.335601    -0.731 
O2       O      0.435        0.8847       0.335601    -0.731 
O2       O      0.435        0.3847       0.8356      -0.731 
O2       O      0.935        0.8847       0.8356      -0.731 
O2       O      0.0885006    0.4017       0.3765      -0.731 
O2       O      0.5885       0.9017       0.3765      -0.731 
O2       O      0.5885       0.4017       0.876499    -0.731 
O2       O      0.0885006    0.9017       0.876499    -0.731 
O3       O      0.1513       0.371601     0.3999      -0.587 
O3       O      0.6513       0.8716       0.3999      -0.587 
O3       O      0.6513       0.371601     0.899899    -0.587 
O3       O      0.1513       0.8716       0.899899    -0.587 
O3       O      0.116101     0.4096       0.3846      -0.587 
O3       O      0.6161       0.9096       0.3846      -0.587 
O3       O      0.6161       0.4096       0.8846      -0.587 
O3       O      0.116101     0.9096       0.8846      -0.587 
O2       O      0.0176996    0.423601     0.3009      -0.731 
O2       O      0.5177       0.9236       0.3009      -0.731 
O2       O      0.5177       0.423601     0.8009      -0.731 
O2       O      0.0176996    0.9236       0.8009      -0.731 
O2       O      0.0518999    0.438599     0.3391      -0.731 
O2       O      0.551901     0.9386       0.3391      -0.731 
O2       O      0.551901     0.438599     0.8391      -0.731 
O2       O      0.0518999    0.9386       0.8391      -0.731 
O2       O      0.0266001    0.4276       0.272001    -0.731 
O2       O      0.526599     0.9276       0.272001    -0.731 
O2       O      0.526599     0.4276       0.772       -0.731 
O2       O      0.0266001    0.9276       0.772       -0.731 
O2       O      0.4879       0.0277002    0.2842      -0.731 
O2       O      0.987899     0.527699     0.2842      -0.731 
O2       O      0.987899     0.0277002    0.784201    -0.731 
O2       O      0.4879       0.527699     0.784201    -0.731 
O2       O      0.0697998    0.4538       0.2747      -0.731 
O2       O      0.5698       0.953801     0.2747      -0.731 
O2       O      0.5698       0.4538       0.774699    -0.731 
O2       O      0.0697998    0.953801     0.774699    -0.731 
O3       O      0.0595001    0.4653       0.326099    -0.587 
O3       O      0.559499     0.9653       0.326099    -0.587 
O3       O      0.559499     0.4653       0.8261      -0.587 
O3       O      0.0595001    0.9653       0.8261      -0.587 
O3       O      0.6967       0.00130031   0.3416      -0.587 
O3       O      0.196701     0.5013       0.3416      -0.587 
O3       O      0.196701     0.00130031   0.841599    -0.587 
O3       O      0.6967       0.5013       0.841599    -0.587 
O3       O      0.179701     0.330201     0.4726      -0.587 
O3       O      0.6797       0.8302       0.4726      -0.587 
O3       O      0.6797       0.330201     0.9726      -0.587 
O3       O      0.179701     0.8302       0.9726      -0.587 
O2       O      0.1866       0.4901       0.3688      -0.731 
O2       O      0.686601     0.9901       0.3688      -0.731 
O2       O      0.686601     0.4901       0.8688      -0.731 
O2       O      0.1866       0.9901       0.8688      -0.731 
O2       O      0.1708       0.3593       0.461801    -0.731 
O2       O      0.670799     0.8593       0.461801    -0.731 
O2       O      0.670799     0.3593       0.9618      -0.731 
O2       O      0.1708       0.8593       0.9618      -0.731 
O2       O      0.1366       0.475        0.368401    -0.731 
O2       O      0.6366       0.975001     0.368401    -0.731 
O2       O      0.6366       0.475        0.8684      -0.731 
O2       O      0.1366       0.975001     0.8684      -0.731 
O2       O      0.1184       0.4932       0.351501    -0.731 
O2       O      0.6184       0.993199     0.351501    -0.731 
O2       O      0.6184       0.4932       0.8515      -0.731 
O2       O      0.1184       0.993199     0.8515      -0.731 
C3       C      0.1683       0.3489       0.425        0.11  
C3       C      0.6683       0.848899     0.425        0.11  
C3       C      0.6683       0.3489       0.925        0.11  
C3       C      0.1683       0.848899     0.925        0.11  
C2       C      0.1791       0.335601     0.438401    -0.274 
C2       C      0.679101     0.8356       0.438401    -0.274 
C2       C      0.679101     0.335601     0.9384      -0.274 
C2       C      0.1791       0.8356       0.9384      -0.274 
C1       C      0.1779       0.3423       0.458501     0.848 
C1       C      0.6779       0.8423       0.458501     0.848 
C1       C      0.6779       0.3423       0.9585       0.848 
C1       C      0.1779       0.8423       0.9585       0.848 
C3       C      0.9839       0.409999     0.2908       0.11  
C3       C      0.4839       0.91         0.2908       0.11  
C3       C      0.4839       0.409999     0.7908       0.11  
C3       C      0.9839       0.91         0.7908       0.11  
C2       C      0.997399     0.4134       0.2775      -0.274 
C2       C      0.4974       0.9134       0.2775      -0.274 
C2       C      0.4974       0.4134       0.7775      -0.274 
C2       C      0.997399     0.9134       0.7775      -0.274 
C1       C      0.0136999    0.4224       0.283799     0.848 
C1       C      0.513701     0.9224       0.283799     0.848 
C1       C      0.513701     0.4224       0.7838       0.848 
C1       C      0.0136999    0.9224       0.7838       0.848 
C2       C      0.0774       0.4531       0.3519      -0.274 
C2       C      0.577401     0.9531       0.3519      -0.274 
C2       C      0.577401     0.4531       0.8519      -0.274 
C2       C      0.0774       0.9531       0.8519      -0.274 
C3       C      0.0885006    0.4689       0.3551       0.11  
C3       C      0.5885       0.9689       0.3551       0.11  
C3       C      0.5885       0.4689       0.8551       0.11  
C3       C      0.0885006    0.9689       0.8551       0.11  
C2       C      0.106599     0.4656       0.3639      -0.274 
C2       C      0.6066       0.965599     0.3639      -0.274 
C2       C      0.6066       0.4656       0.8639      -0.274 
C2       C      0.106599     0.965599     0.8639      -0.274 
C3       C      0.1116       0.447099     0.3702       0.11  
C3       C      0.6116       0.9471       0.3702       0.11  
C3       C      0.6116       0.447099     0.870199     0.11  
C3       C      0.1116       0.9471       0.870199     0.11  
C2       C      0.0978003    0.4325       0.3699      -0.274 
C2       C      0.5978       0.9325       0.3699      -0.274 
C2       C      0.5978       0.4325       0.8699      -0.274 
C2       C      0.0978003    0.9325       0.8699      -0.274 
C3       C      0.0797002    0.437301     0.3638       0.11  
C3       C      0.5797       0.9373       0.3638       0.11  
C3       C      0.5797       0.437301     0.863799     0.11  
C3       C      0.0797002    0.9373       0.863799     0.11  
C1       C      0.101299     0.4137       0.376999     0.848 
C1       C      0.6013       0.913699     0.376999     0.848 
C1       C      0.6013       0.4137       0.877        0.848 
C1       C      0.101299     0.913699     0.877        0.848 
C1       C      0.121499     0.4783       0.3608       0.848 
C1       C      0.6215       0.978299     0.3608       0.848 
C1       C      0.6215       0.4783       0.8608       0.848 
C1       C      0.121499     0.978299     0.8608       0.848 
C1       C      0.0627002    0.452399     0.3386       0.848 
C1       C      0.562699     0.9524       0.3386       0.848 
C1       C      0.562699     0.452399     0.8386       0.848 
C1       C      0.0627002    0.9524       0.8386       0.848 
C2       C      0.128801     0.4847       0.289099    -0.274 
C2       C      0.6288       0.984699     0.289099    -0.274 
C2       C      0.6288       0.4847       0.7891      -0.274 
C2       C      0.128801     0.984699     0.7891      -0.274 
C3       C      0.106599     0.4824       0.2907       0.11  
C3       C      0.6066       0.982401     0.2907       0.11  
C3       C      0.6066       0.4824       0.790699     0.11  
C3       C      0.106599     0.982401     0.790699     0.11  
C1       C      0.6981       0.000500647  0.3604       0.848 
C1       C      0.1981       0.5005       0.3604       0.848 
C1       C      0.1981       0.000500647  0.8604       0.848 
C1       C      0.6981       0.5005       0.8604       0.848 
H1       H      0.0680084    0.382107     0.320568     0.1   
H1       H      0.568009     0.882108     0.320568     0.1   
H1       H      0.568009     0.382107     0.820567     0.1   
H1       H      0.0680084    0.882108     0.820567     0.1   
H1       H      0.0833241    0.399046     0.266939     0.1   
H1       H      0.583325     0.899045     0.266939     0.1   
H1       H      0.583325     0.399046     0.766939     0.1   
H1       H      0.0833241    0.899045     0.766939     0.1   
H1       H      0.167769     0.322196     0.386713     0.1   
H1       H      0.667768     0.822196     0.386713     0.1   
H1       H      0.667768     0.322196     0.886714     0.1   
H1       H      0.167769     0.822196     0.886714     0.1   
H1       H      0.195188     0.310376     0.439989     0.1   
H1       H      0.695187     0.810377     0.439989     0.1   
H1       H      0.695187     0.310376     0.93999      0.1   
H1       H      0.195188     0.810377     0.93999      0.1   
H1       H      0.126112     0.30578      0.374739     0.1   
H1       H      0.626112     0.805779     0.374739     0.1   
H1       H      0.626112     0.30578      0.87474      0.1   
H1       H      0.126112     0.805779     0.87474      0.1   
H1       H      0.987827     0.40927      0.305918     0.1   
H1       H      0.487827     0.90927      0.305918     0.1   
H1       H      0.487827     0.40927      0.805918     0.1   
H1       H      0.987827     0.90927      0.805918     0.1   
H1       H      0.099161     0.489929     0.300853     0.1   
H1       H      0.59916      0.989928     0.300853     0.1   
H1       H      0.59916      0.489929     0.800852     0.1   
H1       H      0.099161     0.989928     0.800852     0.1   
Cr1      Cr     0.2726       0.4452       0.0465999    1.859 
Cr1      Cr     0.772599     0.9452       0.0465999    1.859 
Cr1      Cr     0.772599     0.4452       0.546601     1.859 
Cr1      Cr     0.2726       0.9452       0.546601     1.859 
Cr2      Cr     0.369699     0.4864       0.16         1.62  
Cr2      Cr     0.8697       0.9864       0.16         1.62  
Cr2      Cr     0.8697       0.4864       0.660001     1.62  
Cr2      Cr     0.369699     0.9864       0.660001     1.62  
O2       O      0.817099     0.4043       0.4563      -0.731 
O2       O      0.3171       0.9043       0.4563      -0.731 
O2       O      0.3171       0.4043       0.9563      -0.731 
O2       O      0.817099     0.9043       0.9563      -0.731 
O2       O      0.8356       0.3847       0.435       -0.731 
O2       O      0.335601     0.8847       0.435       -0.731 
O2       O      0.335601     0.3847       0.935       -0.731 
O2       O      0.8356       0.8847       0.935       -0.731 
O3       O      0.3765       0.4017       0.0885006   -0.587 
O3       O      0.876499     0.9017       0.0885006   -0.587 
O3       O      0.876499     0.4017       0.5885      -0.587 
O3       O      0.3765       0.9017       0.5885      -0.587 
O2       O      0.3999       0.371601     0.1513      -0.731 
O2       O      0.899899     0.8716       0.1513      -0.731 
O2       O      0.899899     0.371601     0.6513      -0.731 
O2       O      0.3999       0.8716       0.6513      -0.731 
O2       O      0.3846       0.4096       0.116101    -0.731 
O2       O      0.8846       0.9096       0.116101    -0.731 
O2       O      0.8846       0.4096       0.6161      -0.731 
O2       O      0.3846       0.9096       0.6161      -0.731 
O2       O      0.3009       0.423601     0.0176996   -0.731 
O2       O      0.8009       0.9236       0.0176996   -0.731 
O2       O      0.8009       0.423601     0.5177      -0.731 
O2       O      0.3009       0.9236       0.5177      -0.731 
O2       O      0.3391       0.438599     0.0518999   -0.731 
O2       O      0.8391       0.9386       0.0518999   -0.731 
O2       O      0.8391       0.438599     0.551901    -0.731 
O2       O      0.3391       0.9386       0.551901    -0.731 
O2       O      0.272001     0.4276       0.0266001   -0.731 
O2       O      0.772        0.9276       0.0266001   -0.731 
O2       O      0.772        0.4276       0.526599    -0.731 
O2       O      0.272001     0.9276       0.526599    -0.731 
O2       O      0.2842       0.0277002    0.4879      -0.731 
O2       O      0.784201     0.527699     0.4879      -0.731 
O2       O      0.784201     0.0277002    0.987899    -0.731 
O2       O      0.2842       0.527699     0.987899    -0.731 
O2       O      0.2747       0.4538       0.0697998   -0.731 
O2       O      0.774699     0.953801     0.0697998   -0.731 
O2       O      0.774699     0.4538       0.5698      -0.731 
O2       O      0.2747       0.953801     0.5698      -0.731 
O3       O      0.326099     0.4653       0.0595001   -0.587 
O3       O      0.8261       0.9653       0.0595001   -0.587 
O3       O      0.8261       0.4653       0.559499    -0.587 
O3       O      0.326099     0.9653       0.559499    -0.587 
O2       O      0.841599     0.00130031   0.196701    -0.731 
O2       O      0.3416       0.5013       0.196701    -0.731 
O2       O      0.3416       0.00130031   0.6967      -0.731 
O2       O      0.841599     0.5013       0.6967      -0.731 
O3       O      0.4726       0.330201     0.179701    -0.587 
O3       O      0.9726       0.8302       0.179701    -0.587 
O3       O      0.9726       0.330201     0.6797      -0.587 
O3       O      0.4726       0.8302       0.6797      -0.587 
O3       O      0.3688       0.4901       0.1866      -0.587 
O3       O      0.8688       0.9901       0.1866      -0.587 
O3       O      0.8688       0.4901       0.686601    -0.587 
O3       O      0.3688       0.9901       0.686601    -0.587 
O2       O      0.461801     0.3593       0.1708      -0.731 
O2       O      0.9618       0.8593       0.1708      -0.731 
O2       O      0.9618       0.3593       0.670799    -0.731 
O2       O      0.461801     0.8593       0.670799    -0.731 
O3       O      0.368401     0.475        0.1366      -0.587 
O3       O      0.8684       0.975001     0.1366      -0.587 
O3       O      0.8684       0.475        0.6366      -0.587 
O3       O      0.368401     0.975001     0.6366      -0.587 
O2       O      0.351501     0.4932       0.1184      -0.731 
O2       O      0.8515       0.993199     0.1184      -0.731 
O2       O      0.8515       0.4932       0.6184      -0.731 
O2       O      0.351501     0.993199     0.6184      -0.731 
F1       F      0.3925       0.475699     0.1655      -0.566 
F1       F      0.892499     0.9757       0.1655      -0.566 
F1       F      0.892499     0.475699     0.665499    -0.566 
F1       F      0.3925       0.9757       0.665499    -0.566 
C3       C      0.425        0.3489       0.1683       0.11  
C3       C      0.925        0.848899     0.1683       0.11  
C3       C      0.925        0.3489       0.6683       0.11  
C3       C      0.425        0.848899     0.6683       0.11  
C2       C      0.438401     0.335601     0.1791      -0.274 
C2       C      0.9384       0.8356       0.1791      -0.274 
C2       C      0.9384       0.335601     0.679101    -0.274 
C2       C      0.438401     0.8356       0.679101    -0.274 
C1       C      0.458501     0.3423       0.1779       0.848 
C1       C      0.9585       0.8423       0.1779       0.848 
C1       C      0.9585       0.3423       0.6779       0.848 
C1       C      0.458501     0.8423       0.6779       0.848 
C3       C      0.7908       0.409999     0.4839       0.11  
C3       C      0.2908       0.91         0.4839       0.11  
C3       C      0.2908       0.409999     0.9839       0.11  
C3       C      0.7908       0.91         0.9839       0.11  
C2       C      0.7775       0.4134       0.4974      -0.274 
C2       C      0.2775       0.9134       0.4974      -0.274 
C2       C      0.2775       0.4134       0.997399    -0.274 
C2       C      0.7775       0.9134       0.997399    -0.274 
C1       C      0.283799     0.4224       0.0136999    0.848 
C1       C      0.7838       0.9224       0.0136999    0.848 
C1       C      0.7838       0.4224       0.513701     0.848 
C1       C      0.283799     0.9224       0.513701     0.848 
C2       C      0.3519       0.4531       0.0774      -0.274 
C2       C      0.8519       0.9531       0.0774      -0.274 
C2       C      0.8519       0.4531       0.577401    -0.274 
C2       C      0.3519       0.9531       0.577401    -0.274 
C3       C      0.3551       0.4689       0.0885006    0.11  
C3       C      0.8551       0.9689       0.0885006    0.11  
C3       C      0.8551       0.4689       0.5885       0.11  
C3       C      0.3551       0.9689       0.5885       0.11  
C2       C      0.3639       0.4656       0.106599    -0.274 
C2       C      0.8639       0.965599     0.106599    -0.274 
C2       C      0.8639       0.4656       0.6066      -0.274 
C2       C      0.3639       0.965599     0.6066      -0.274 
C3       C      0.3702       0.447099     0.1116       0.11  
C3       C      0.870199     0.9471       0.1116       0.11  
C3       C      0.870199     0.447099     0.6116       0.11  
C3       C      0.3702       0.9471       0.6116       0.11  
C2       C      0.3699       0.4325       0.0978003   -0.274 
C2       C      0.8699       0.9325       0.0978003   -0.274 
C2       C      0.8699       0.4325       0.5978      -0.274 
C2       C      0.3699       0.9325       0.5978      -0.274 
C3       C      0.3638       0.437301     0.0797002    0.11  
C3       C      0.863799     0.9373       0.0797002    0.11  
C3       C      0.863799     0.437301     0.5797       0.11  
C3       C      0.3638       0.9373       0.5797       0.11  
C1       C      0.376999     0.4137       0.101299     0.848 
C1       C      0.877        0.913699     0.101299     0.848 
C1       C      0.877        0.4137       0.6013       0.848 
C1       C      0.376999     0.913699     0.6013       0.848 
C1       C      0.3608       0.4783       0.121499     0.848 
C1       C      0.8608       0.978299     0.121499     0.848 
C1       C      0.8608       0.4783       0.6215       0.848 
C1       C      0.3608       0.978299     0.6215       0.848 
C1       C      0.3386       0.452399     0.0627002    0.848 
C1       C      0.8386       0.9524       0.0627002    0.848 
C1       C      0.8386       0.452399     0.562699     0.848 
C1       C      0.3386       0.9524       0.562699     0.848 
C2       C      0.289099     0.4847       0.128801    -0.274 
C2       C      0.7891       0.984699     0.128801    -0.274 
C2       C      0.7891       0.4847       0.6288      -0.274 
C2       C      0.289099     0.984699     0.6288      -0.274 
C3       C      0.2907       0.4824       0.106599     0.11  
C3       C      0.790699     0.982401     0.106599     0.11  
C3       C      0.790699     0.4824       0.6066       0.11  
C3       C      0.2907       0.982401     0.6066       0.11  
C1       C      0.8604       0.000500647  0.1981       0.848 
C1       C      0.3604       0.5005       0.1981       0.848 
C1       C      0.3604       0.000500647  0.6981       0.848 
C1       C      0.8604       0.5005       0.6981       0.848 
H1       H      0.320568     0.382107     0.0680084    0.1   
H1       H      0.820567     0.882108     0.0680084    0.1   
H1       H      0.820567     0.382107     0.568009     0.1   
H1       H      0.320568     0.882108     0.568009     0.1   
H1       H      0.266939     0.399046     0.0833241    0.1   
H1       H      0.766939     0.899045     0.0833241    0.1   
H1       H      0.766939     0.399046     0.583325     0.1   
H1       H      0.266939     0.899045     0.583325     0.1   
H1       H      0.895516     0.438032     0.396176     0.1   
H1       H      0.395516     0.938032     0.396176     0.1   
H1       H      0.395516     0.438032     0.896177     0.1   
H1       H      0.895516     0.938032     0.896177     0.1   
H1       H      0.386713     0.322196     0.167769     0.1   
H1       H      0.886714     0.822196     0.167769     0.1   
H1       H      0.886714     0.322196     0.667768     0.1   
H1       H      0.386713     0.822196     0.667768     0.1   
H1       H      0.439989     0.310376     0.195188     0.1   
H1       H      0.93999      0.810377     0.195188     0.1   
H1       H      0.93999      0.310376     0.695187     0.1   
H1       H      0.439989     0.810377     0.695187     0.1   
H1       H      0.374739     0.30578      0.126112     0.1   
H1       H      0.87474      0.805779     0.126112     0.1   
H1       H      0.87474      0.30578      0.626112     0.1   
H1       H      0.374739     0.805779     0.626112     0.1   
H1       H      0.805918     0.40927      0.487827     0.1   
H1       H      0.305918     0.90927      0.487827     0.1   
H1       H      0.305918     0.40927      0.987827     0.1   
H1       H      0.805918     0.90927      0.987827     0.1   
H1       H      0.300853     0.489929     0.099161     0.1   
H1       H      0.800852     0.989928     0.099161     0.1   
H1       H      0.800852     0.489929     0.59916      0.1   
H1       H      0.300853     0.989928     0.59916      0.1   
Cr1      Cr     0.4774       0.304801     0.0465999    1.859 
Cr1      Cr     0.9774       0.8048       0.0465999    1.859 
Cr1      Cr     0.9774       0.304801     0.546601     1.859 
Cr1      Cr     0.4774       0.8048       0.546601     1.859 
Cr2      Cr     0.380299     0.263599     0.16         1.62  
Cr2      Cr     0.8803       0.7636       0.16         1.62  
Cr2      Cr     0.8803       0.263599     0.660001     1.62  
Cr2      Cr     0.380299     0.7636       0.660001     1.62  
O2       O      0.9329       0.3457       0.4563      -0.731 
O2       O      0.4329       0.845699     0.4563      -0.731 
O2       O      0.4329       0.3457       0.9563      -0.731 
O2       O      0.9329       0.845699     0.9563      -0.731 
O2       O      0.9144       0.365301     0.435       -0.731 
O2       O      0.4144       0.8653       0.435       -0.731 
O2       O      0.4144       0.365301     0.935       -0.731 
O2       O      0.9144       0.8653       0.935       -0.731 
O3       O      0.3735       0.348301     0.0885006   -0.587 
O3       O      0.8735       0.8483       0.0885006   -0.587 
O3       O      0.8735       0.348301     0.5885      -0.587 
O3       O      0.3735       0.8483       0.5885      -0.587 
O2       O      0.3501       0.3784       0.1513      -0.731 
O2       O      0.8501       0.8784       0.1513      -0.731 
O2       O      0.8501       0.3784       0.6513      -0.731 
O2       O      0.3501       0.8784       0.6513      -0.731 
O2       O      0.365399     0.3404       0.116101    -0.731 
O2       O      0.8654       0.840401     0.116101    -0.731 
O2       O      0.8654       0.3404       0.6161      -0.731 
O2       O      0.365399     0.840401     0.6161      -0.731 
O3       O      0.449101     0.3264       0.0176996   -0.587 
O3       O      0.9491       0.8264       0.0176996   -0.587 
O3       O      0.9491       0.3264       0.5177      -0.587 
O3       O      0.449101     0.8264       0.5177      -0.587 
O3       O      0.410901     0.3114       0.0518999   -0.587 
O3       O      0.9109       0.8114       0.0518999   -0.587 
O3       O      0.9109       0.3114       0.551901    -0.587 
O3       O      0.410901     0.8114       0.551901    -0.587 
O2       O      0.478        0.3224       0.0266001   -0.731 
O2       O      0.978        0.822399     0.0266001   -0.731 
O2       O      0.978        0.3224       0.526599    -0.731 
O2       O      0.478        0.822399     0.526599    -0.731 
O3       O      0.9658       0.222299     0.4879      -0.587 
O3       O      0.4658       0.7223       0.4879      -0.587 
O3       O      0.4658       0.222299     0.987899    -0.587 
O3       O      0.9658       0.7223       0.987899    -0.587 
O2       O      0.4753       0.2962       0.0697998   -0.731 
O2       O      0.9753       0.7962       0.0697998   -0.731 
O2       O      0.9753       0.2962       0.5698      -0.731 
O2       O      0.4753       0.7962       0.5698      -0.731 
O2       O      0.4239       0.284701     0.0595001   -0.731 
O2       O      0.9239       0.7847       0.0595001   -0.731 
O2       O      0.9239       0.284701     0.559499    -0.731 
O2       O      0.4239       0.7847       0.559499    -0.731 
O2       O      0.4084       0.248699     0.196701    -0.731 
O2       O      0.908399     0.7487       0.196701    -0.731 
O2       O      0.908399     0.248699     0.6967      -0.731 
O2       O      0.4084       0.7487       0.6967      -0.731 
O3       O      0.277399     0.4198       0.179701    -0.587 
O3       O      0.7774       0.919801     0.179701    -0.587 
O3       O      0.7774       0.4198       0.6797      -0.587 
O3       O      0.277399     0.919801     0.6797      -0.587 
O3       O      0.381201     0.2599       0.1866      -0.587 
O3       O      0.8812       0.759899     0.1866      -0.587 
O3       O      0.8812       0.2599       0.686601    -0.587 
O3       O      0.381201     0.759899     0.686601    -0.587 
O2       O      0.2882       0.390701     0.1708      -0.731 
O2       O      0.7882       0.8907       0.1708      -0.731 
O2       O      0.7882       0.390701     0.670799    -0.731 
O2       O      0.2882       0.8907       0.670799    -0.731 
O3       O      0.3816       0.275        0.1366      -0.587 
O3       O      0.8816       0.775        0.1366      -0.587 
O3       O      0.8816       0.275        0.6366      -0.587 
O3       O      0.3816       0.775        0.6366      -0.587 
O2       O      0.3985       0.2568       0.1184      -0.731 
O2       O      0.8985       0.7568       0.1184      -0.731 
O2       O      0.8985       0.2568       0.6184      -0.731 
O2       O      0.3985       0.7568       0.6184      -0.731 
F1       F      0.3575       0.2743       0.1655      -0.566 
F1       F      0.857499     0.7743       0.1655      -0.566 
F1       F      0.857499     0.2743       0.665499    -0.566 
F1       F      0.3575       0.7743       0.665499    -0.566 
C3       C      0.325001     0.4011       0.1683       0.11  
C3       C      0.825        0.9011       0.1683       0.11  
C3       C      0.825        0.4011       0.6683       0.11  
C3       C      0.325001     0.9011       0.6683       0.11  
C2       C      0.3116       0.4144       0.1791      -0.274 
C2       C      0.8116       0.9144       0.1791      -0.274 
C2       C      0.8116       0.4144       0.679101    -0.274 
C2       C      0.3116       0.9144       0.679101    -0.274 
C1       C      0.2915       0.407701     0.1779       0.848 
C1       C      0.791501     0.9077       0.1779       0.848 
C1       C      0.791501     0.407701     0.6779       0.848 
C1       C      0.2915       0.9077       0.6779       0.848 
C3       C      0.959199     0.339999     0.4839       0.11  
C3       C      0.4592       0.84         0.4839       0.11  
C3       C      0.4592       0.339999     0.9839       0.11  
C3       C      0.959199     0.84         0.9839       0.11  
C2       C      0.9725       0.336601     0.4974      -0.274 
C2       C      0.472499     0.8366       0.4974      -0.274 
C2       C      0.472499     0.336601     0.997399    -0.274 
C2       C      0.9725       0.8366       0.997399    -0.274 
C1       C      0.466199     0.3276       0.0136999    0.848 
C1       C      0.9662       0.827601     0.0136999    0.848 
C1       C      0.9662       0.3276       0.513701     0.848 
C1       C      0.466199     0.827601     0.513701     0.848 
C2       C      0.398101     0.2969       0.0774      -0.274 
C2       C      0.8981       0.796901     0.0774      -0.274 
C2       C      0.8981       0.2969       0.577401    -0.274 
C2       C      0.398101     0.796901     0.577401    -0.274 
C3       C      0.394901     0.2811       0.0885006    0.11  
C3       C      0.8949       0.781099     0.0885006    0.11  
C3       C      0.8949       0.2811       0.5885       0.11  
C3       C      0.394901     0.781099     0.5885       0.11  
C2       C      0.3861       0.2844       0.106599    -0.274 
C2       C      0.886099     0.7844       0.106599    -0.274 
C2       C      0.886099     0.2844       0.6066      -0.274 
C2       C      0.3861       0.7844       0.6066      -0.274 
C3       C      0.3798       0.302899     0.1116       0.11  
C3       C      0.8798       0.8029       0.1116       0.11  
C3       C      0.8798       0.302899     0.6116       0.11  
C3       C      0.3798       0.8029       0.6116       0.11  
C2       C      0.380101     0.317501     0.0978003   -0.274 
C2       C      0.8801       0.8175       0.0978003   -0.274 
C2       C      0.8801       0.317501     0.5978      -0.274 
C2       C      0.380101     0.8175       0.5978      -0.274 
C3       C      0.3862       0.3127       0.0797002    0.11  
C3       C      0.8862       0.812701     0.0797002    0.11  
C3       C      0.8862       0.3127       0.5797       0.11  
C3       C      0.3862       0.812701     0.5797       0.11  
C1       C      0.373        0.3363       0.101299     0.848 
C1       C      0.873        0.836299     0.101299     0.848 
C1       C      0.873        0.3363       0.6013       0.848 
C1       C      0.373        0.836299     0.6013       0.848 
C1       C      0.3892       0.2717       0.121499     0.848 
C1       C      0.889201     0.7717       0.121499     0.848 
C1       C      0.889201     0.2717       0.6215       0.848 
C1       C      0.3892       0.7717       0.6215       0.848 
C1       C      0.4114       0.2976       0.0627002    0.848 
C1       C      0.911401     0.7976       0.0627002    0.848 
C1       C      0.911401     0.2976       0.562699     0.848 
C1       C      0.4114       0.7976       0.562699     0.848 
C2       C      0.460899     0.2653       0.128801    -0.274 
C2       C      0.9609       0.7653       0.128801    -0.274 
C2       C      0.9609       0.2653       0.6288      -0.274 
C2       C      0.460899     0.7653       0.6288      -0.274 
C3       C      0.4593       0.2676       0.106599     0.11  
C3       C      0.959299     0.7676       0.106599     0.11  
C3       C      0.959299     0.2676       0.6066       0.11  
C3       C      0.4593       0.7676       0.6066       0.11  
C1       C      0.389601     0.2495       0.1981       0.848 
C1       C      0.8896       0.7495       0.1981       0.848 
C1       C      0.8896       0.2495       0.6981       0.848 
C1       C      0.389601     0.7495       0.6981       0.848 
H1       H      0.429433     0.367892     0.0680084    0.1   
H1       H      0.929434     0.867892     0.0680084    0.1   
H1       H      0.929434     0.367892     0.568009     0.1   
H1       H      0.429433     0.867892     0.568009     0.1   
H1       H      0.483061     0.350955     0.0833241    0.1   
H1       H      0.98306      0.850954     0.0833241    0.1   
H1       H      0.98306      0.350955     0.583325     0.1   
H1       H      0.483061     0.850954     0.583325     0.1   
H1       H      0.363286     0.427803     0.167769     0.1   
H1       H      0.863286     0.927804     0.167769     0.1   
H1       H      0.863286     0.427803     0.667768     0.1   
H1       H      0.363286     0.927804     0.667768     0.1   
H1       H      0.37526      0.44422      0.126112     0.1   
H1       H      0.875261     0.94422      0.126112     0.1   
H1       H      0.875261     0.44422      0.626112     0.1   
H1       H      0.37526      0.94422      0.626112     0.1   
H1       H      0.944083     0.340729     0.487827     0.1   
H1       H      0.444082     0.84073      0.487827     0.1   
H1       H      0.444082     0.340729     0.987827     0.1   
H1       H      0.944083     0.84073      0.987827     0.1   
H1       H      0.449147     0.260072     0.099161     0.1   
H1       H      0.949148     0.760071     0.099161     0.1   
H1       H      0.949148     0.260072     0.59916      0.1   
H1       H      0.449147     0.760071     0.59916      0.1   
Cr1      Cr     0.9774       0.4452       0.2034       1.859 
Cr1      Cr     0.4774       0.9452       0.2034       1.859 
Cr1      Cr     0.4774       0.4452       0.7034       1.859 
Cr1      Cr     0.9774       0.9452       0.7034       1.859 
Cr1      Cr     0.8803       0.4864       0.0899998    1.859 
Cr1      Cr     0.380299     0.9864       0.0899998    1.859 
Cr1      Cr     0.380299     0.4864       0.590001     1.859 
Cr1      Cr     0.8803       0.9864       0.590001     1.859 
O3       O      0.9329       0.4043       0.2937      -0.587 
O3       O      0.4329       0.9043       0.2937      -0.587 
O3       O      0.4329       0.4043       0.793701    -0.587 
O3       O      0.9329       0.9043       0.793701    -0.587 
O3       O      0.9144       0.3847       0.315       -0.587 
O3       O      0.4144       0.8847       0.315       -0.587 
O3       O      0.4144       0.3847       0.814999    -0.587 
O3       O      0.9144       0.8847       0.814999    -0.587 
O2       O      0.8735       0.4017       0.1615      -0.731 
O2       O      0.3735       0.9017       0.1615      -0.731 
O2       O      0.3735       0.4017       0.6615      -0.731 
O2       O      0.8735       0.9017       0.6615      -0.731 
O3       O      0.8501       0.371601     0.0987001   -0.587 
O3       O      0.3501       0.8716       0.0987001   -0.587 
O3       O      0.3501       0.371601     0.598699    -0.587 
O3       O      0.8501       0.8716       0.598699    -0.587 
O3       O      0.8654       0.4096       0.1339      -0.587 
O3       O      0.365399     0.9096       0.1339      -0.587 
O3       O      0.365399     0.4096       0.6339      -0.587 
O3       O      0.8654       0.9096       0.6339      -0.587 
O2       O      0.9491       0.423601     0.2323      -0.731 
O2       O      0.449101     0.9236       0.2323      -0.731 
O2       O      0.449101     0.423601     0.732299    -0.731 
O2       O      0.9491       0.9236       0.732299    -0.731 
O2       O      0.9109       0.438599     0.1981      -0.731 
O2       O      0.410901     0.9386       0.1981      -0.731 
O2       O      0.410901     0.438599     0.6981      -0.731 
O2       O      0.9109       0.9386       0.6981      -0.731 
O2       O      0.978        0.4276       0.2234      -0.731 
O2       O      0.478        0.9276       0.2234      -0.731 
O2       O      0.478        0.4276       0.7234      -0.731 
O2       O      0.978        0.9276       0.7234      -0.731 
O2       O      0.4658       0.0277002    0.2621      -0.731 
O2       O      0.9658       0.527699     0.2621      -0.731 
O2       O      0.9658       0.0277002    0.7621      -0.731 
O2       O      0.4658       0.527699     0.7621      -0.731 
O2       O      0.9753       0.4538       0.1802      -0.731 
O2       O      0.4753       0.953801     0.1802      -0.731 
O2       O      0.4753       0.4538       0.680201    -0.731 
O2       O      0.9753       0.953801     0.680201    -0.731 
O3       O      0.9239       0.4653       0.1905      -0.587 
O3       O      0.4239       0.9653       0.1905      -0.587 
O3       O      0.4239       0.4653       0.6905      -0.587 
O3       O      0.9239       0.9653       0.6905      -0.587 
O3       O      0.4084       0.00130031   0.0533004   -0.587 
O3       O      0.908399     0.5013       0.0533004   -0.587 
O3       O      0.908399     0.00130031   0.5533      -0.587 
O3       O      0.4084       0.5013       0.5533      -0.587 
O2       O      0.7774       0.330201     0.0703004   -0.731 
O2       O      0.277399     0.8302       0.0703004   -0.731 
O2       O      0.277399     0.330201     0.5703      -0.731 
O2       O      0.7774       0.8302       0.5703      -0.731 
O2       O      0.8812       0.4901       0.0633997   -0.731 
O2       O      0.381201     0.9901       0.0633997   -0.731 
O2       O      0.381201     0.4901       0.5634      -0.731 
O2       O      0.8812       0.9901       0.5634      -0.731 
O2       O      0.7882       0.3593       0.0791996   -0.731 
O2       O      0.2882       0.8593       0.0791996   -0.731 
O2       O      0.2882       0.3593       0.5792      -0.731 
O2       O      0.7882       0.8593       0.5792      -0.731 
O2       O      0.8816       0.475        0.1134      -0.731 
O2       O      0.3816       0.975001     0.1134      -0.731 
O2       O      0.3816       0.475        0.613401    -0.731 
O2       O      0.8816       0.975001     0.613401    -0.731 
O2       O      0.8985       0.4932       0.1316      -0.731 
O2       O      0.3985       0.993199     0.1316      -0.731 
O2       O      0.3985       0.4932       0.631599    -0.731 
O2       O      0.8985       0.993199     0.631599    -0.731 
C3       C      0.825        0.3489       0.0817001    0.11  
C3       C      0.325001     0.848899     0.0817001    0.11  
C3       C      0.325001     0.3489       0.581699     0.11  
C3       C      0.825        0.848899     0.581699     0.11  
C2       C      0.8116       0.335601     0.0708998   -0.274 
C2       C      0.3116       0.8356       0.0708998   -0.274 
C2       C      0.3116       0.335601     0.5709      -0.274 
C2       C      0.8116       0.8356       0.5709      -0.274 
C1       C      0.791501     0.3423       0.0721       0.848 
C1       C      0.2915       0.8423       0.0721       0.848 
C1       C      0.2915       0.3423       0.572101     0.848 
C1       C      0.791501     0.8423       0.572101     0.848 
C3       C      0.959199     0.409999     0.2661       0.11  
C3       C      0.4592       0.91         0.2661       0.11  
C3       C      0.4592       0.409999     0.766101     0.11  
C3       C      0.959199     0.91         0.766101     0.11  
C2       C      0.9725       0.4134       0.2526      -0.274 
C2       C      0.472499     0.9134       0.2526      -0.274 
C2       C      0.472499     0.4134       0.7526      -0.274 
C2       C      0.9725       0.9134       0.7526      -0.274 
C1       C      0.9662       0.4224       0.2363       0.848 
C1       C      0.466199     0.9224       0.2363       0.848 
C1       C      0.466199     0.4224       0.7363       0.848 
C1       C      0.9662       0.9224       0.7363       0.848 
C2       C      0.8981       0.4531       0.1726      -0.274 
C2       C      0.398101     0.9531       0.1726      -0.274 
C2       C      0.398101     0.4531       0.6726      -0.274 
C2       C      0.8981       0.9531       0.6726      -0.274 
C3       C      0.8949       0.4689       0.1615       0.11  
C3       C      0.394901     0.9689       0.1615       0.11  
C3       C      0.394901     0.4689       0.6615       0.11  
C3       C      0.8949       0.9689       0.6615       0.11  
C2       C      0.886099     0.4656       0.1434      -0.274 
C2       C      0.3861       0.965599     0.1434      -0.274 
C2       C      0.3861       0.4656       0.6434      -0.274 
C2       C      0.886099     0.965599     0.6434      -0.274 
C3       C      0.8798       0.447099     0.138399     0.11  
C3       C      0.3798       0.9471       0.138399     0.11  
C3       C      0.3798       0.447099     0.6384       0.11  
C3       C      0.8798       0.9471       0.6384       0.11  
C2       C      0.8801       0.4325       0.152199    -0.274 
C2       C      0.380101     0.9325       0.152199    -0.274 
C2       C      0.380101     0.4325       0.6522      -0.274 
C2       C      0.8801       0.9325       0.6522      -0.274 
C3       C      0.8862       0.437301     0.170299     0.11  
C3       C      0.3862       0.9373       0.170299     0.11  
C3       C      0.3862       0.437301     0.6703       0.11  
C3       C      0.8862       0.9373       0.6703       0.11  
C1       C      0.873        0.4137       0.1487       0.848 
C1       C      0.373        0.913699     0.1487       0.848 
C1       C      0.373        0.4137       0.6487       0.848 
C1       C      0.873        0.913699     0.6487       0.848 
C1       C      0.889201     0.4783       0.1285       0.848 
C1       C      0.3892       0.978299     0.1285       0.848 
C1       C      0.3892       0.4783       0.6285       0.848 
C1       C      0.889201     0.978299     0.6285       0.848 
C1       C      0.911401     0.452399     0.187299     0.848 
C1       C      0.4114       0.9524       0.187299     0.848 
C1       C      0.4114       0.452399     0.6873       0.848 
C1       C      0.911401     0.9524       0.6873       0.848 
C2       C      0.9609       0.4847       0.1212      -0.274 
C2       C      0.460899     0.984699     0.1212      -0.274 
C2       C      0.460899     0.4847       0.6212      -0.274 
C2       C      0.9609       0.984699     0.6212      -0.274 
C3       C      0.959299     0.4824       0.1434       0.11  
C3       C      0.4593       0.982401     0.1434       0.11  
C3       C      0.4593       0.4824       0.6434       0.11  
C3       C      0.959299     0.982401     0.6434       0.11  
C1       C      0.389601     0.000500647  0.0518999    0.848 
C1       C      0.8896       0.5005       0.0518999    0.848 
C1       C      0.8896       0.000500647  0.551901     0.848 
C1       C      0.389601     0.5005       0.551901     0.848 
H1       H      0.929434     0.382107     0.181991     0.1   
H1       H      0.429433     0.882108     0.181991     0.1   
H1       H      0.429433     0.382107     0.681992     0.1   
H1       H      0.929434     0.882108     0.681992     0.1   
H1       H      0.98306      0.399046     0.166676     0.1   
H1       H      0.483061     0.899045     0.166676     0.1   
H1       H      0.483061     0.399046     0.666676     0.1   
H1       H      0.98306      0.899045     0.666676     0.1   
H1       H      0.863286     0.322196     0.0822309    0.1   
H1       H      0.363286     0.822196     0.0822309    0.1   
H1       H      0.363286     0.322196     0.582232     0.1   
H1       H      0.863286     0.822196     0.582232     0.1   
H1       H      0.810011     0.310376     0.0548119    0.1   
H1       H      0.310011     0.810377     0.0548119    0.1   
H1       H      0.310011     0.310376     0.554813     0.1   
H1       H      0.810011     0.810377     0.554813     0.1   
H1       H      0.875261     0.30578      0.123887     0.1   
H1       H      0.37526      0.805779     0.123887     0.1   
H1       H      0.37526      0.30578      0.623888     0.1   
H1       H      0.875261     0.805779     0.623888     0.1   
H1       H      0.944083     0.40927      0.262173     0.1   
H1       H      0.444082     0.90927      0.262173     0.1   
H1       H      0.444082     0.40927      0.762172     0.1   
H1       H      0.944083     0.90927      0.762172     0.1   
H1       H      0.949148     0.489929     0.15084      0.1   
H1       H      0.449147     0.989928     0.15084      0.1   
H1       H      0.449147     0.489929     0.650839     0.1   
H1       H      0.949148     0.989928     0.650839     0.1   
Cr1      Cr     0.772599     0.304801     0.2034       1.859 
Cr1      Cr     0.2726       0.8048       0.2034       1.859 
Cr1      Cr     0.2726       0.304801     0.7034       1.859 
Cr1      Cr     0.772599     0.8048       0.7034       1.859 
Cr1      Cr     0.8697       0.263599     0.0899998    1.859 
Cr1      Cr     0.369699     0.7636       0.0899998    1.859 
Cr1      Cr     0.369699     0.263599     0.590001     1.859 
Cr1      Cr     0.8697       0.7636       0.590001     1.859 
O3       O      0.817099     0.3457       0.2937      -0.587 
O3       O      0.3171       0.845699     0.2937      -0.587 
O3       O      0.3171       0.3457       0.793701    -0.587 
O3       O      0.817099     0.845699     0.793701    -0.587 
O3       O      0.8356       0.365301     0.315       -0.587 
O3       O      0.335601     0.8653       0.315       -0.587 
O3       O      0.335601     0.365301     0.814999    -0.587 
O3       O      0.8356       0.8653       0.814999    -0.587 
O2       O      0.876499     0.348301     0.1615      -0.731 
O2       O      0.3765       0.8483       0.1615      -0.731 
O2       O      0.3765       0.348301     0.6615      -0.731 
O2       O      0.876499     0.8483       0.6615      -0.731 
O2       O      0.899899     0.3784       0.0987001   -0.731 
O2       O      0.3999       0.8784       0.0987001   -0.731 
O2       O      0.3999       0.3784       0.598699    -0.731 
O2       O      0.899899     0.8784       0.598699    -0.731 
O2       O      0.8846       0.3404       0.1339      -0.731 
O2       O      0.3846       0.840401     0.1339      -0.731 
O2       O      0.3846       0.3404       0.6339      -0.731 
O2       O      0.8846       0.840401     0.6339      -0.731 
O2       O      0.8009       0.3264       0.2323      -0.731 
O2       O      0.3009       0.8264       0.2323      -0.731 
O2       O      0.3009       0.3264       0.732299    -0.731 
O2       O      0.8009       0.8264       0.732299    -0.731 
O2       O      0.8391       0.3114       0.1981      -0.731 
O2       O      0.3391       0.8114       0.1981      -0.731 
O2       O      0.3391       0.3114       0.6981      -0.731 
O2       O      0.8391       0.8114       0.6981      -0.731 
O2       O      0.772        0.3224       0.2234      -0.731 
O2       O      0.272001     0.822399     0.2234      -0.731 
O2       O      0.272001     0.3224       0.7234      -0.731 
O2       O      0.772        0.822399     0.7234      -0.731 
O2       O      0.784201     0.222299     0.2621      -0.731 
O2       O      0.2842       0.7223       0.2621      -0.731 
O2       O      0.2842       0.222299     0.7621      -0.731 
O2       O      0.784201     0.7223       0.7621      -0.731 
O2       O      0.774699     0.2962       0.1802      -0.731 
O2       O      0.2747       0.7962       0.1802      -0.731 
O2       O      0.2747       0.2962       0.680201    -0.731 
O2       O      0.774699     0.7962       0.680201    -0.731 
O3       O      0.8261       0.284701     0.1905      -0.587 
O3       O      0.326099     0.7847       0.1905      -0.587 
O3       O      0.326099     0.284701     0.6905      -0.587 
O3       O      0.8261       0.7847       0.6905      -0.587 
O3       O      0.841599     0.248699     0.0533004   -0.587 
O3       O      0.3416       0.7487       0.0533004   -0.587 
O3       O      0.3416       0.248699     0.5533      -0.587 
O3       O      0.841599     0.7487       0.5533      -0.587 
O2       O      0.9726       0.4198       0.0703004   -0.731 
O2       O      0.4726       0.919801     0.0703004   -0.731 
O2       O      0.4726       0.4198       0.5703      -0.731 
O2       O      0.9726       0.919801     0.5703      -0.731 
O2       O      0.8688       0.2599       0.0633997   -0.731 
O2       O      0.3688       0.759899     0.0633997   -0.731 
O2       O      0.3688       0.2599       0.5634      -0.731 
O2       O      0.8688       0.759899     0.5634      -0.731 
O3       O      0.9618       0.390701     0.0791996   -0.587 
O3       O      0.461801     0.8907       0.0791996   -0.587 
O3       O      0.461801     0.390701     0.5792      -0.587 
O3       O      0.9618       0.8907       0.5792      -0.587 
O2       O      0.8684       0.275        0.1134      -0.731 
O2       O      0.368401     0.775        0.1134      -0.731 
O2       O      0.368401     0.275        0.613401    -0.731 
O2       O      0.8684       0.775        0.613401    -0.731 
O2       O      0.8515       0.2568       0.1316      -0.731 
O2       O      0.351501     0.7568       0.1316      -0.731 
O2       O      0.351501     0.2568       0.631599    -0.731 
O2       O      0.8515       0.7568       0.631599    -0.731 
C3       C      0.925        0.4011       0.0817001    0.11  
C3       C      0.425        0.9011       0.0817001    0.11  
C3       C      0.425        0.4011       0.581699     0.11  
C3       C      0.925        0.9011       0.581699     0.11  
C2       C      0.9384       0.4144       0.0708998   -0.274 
C2       C      0.438401     0.9144       0.0708998   -0.274 
C2       C      0.438401     0.4144       0.5709      -0.274 
C2       C      0.9384       0.9144       0.5709      -0.274 
C1       C      0.9585       0.407701     0.0721       0.848 
C1       C      0.458501     0.9077       0.0721       0.848 
C1       C      0.458501     0.407701     0.572101     0.848 
C1       C      0.9585       0.9077       0.572101     0.848 
C3       C      0.7908       0.339999     0.2661       0.11  
C3       C      0.2908       0.84         0.2661       0.11  
C3       C      0.2908       0.339999     0.766101     0.11  
C3       C      0.7908       0.84         0.766101     0.11  
C2       C      0.7775       0.336601     0.2526      -0.274 
C2       C      0.2775       0.8366       0.2526      -0.274 
C2       C      0.2775       0.336601     0.7526      -0.274 
C2       C      0.7775       0.8366       0.7526      -0.274 
C1       C      0.7838       0.3276       0.2363       0.848 
C1       C      0.283799     0.827601     0.2363       0.848 
C1       C      0.283799     0.3276       0.7363       0.848 
C1       C      0.7838       0.827601     0.7363       0.848 
C2       C      0.8519       0.2969       0.1726      -0.274 
C2       C      0.3519       0.796901     0.1726      -0.274 
C2       C      0.3519       0.2969       0.6726      -0.274 
C2       C      0.8519       0.796901     0.6726      -0.274 
C3       C      0.8551       0.2811       0.1615       0.11  
C3       C      0.3551       0.781099     0.1615       0.11  
C3       C      0.3551       0.2811       0.6615       0.11  
C3       C      0.8551       0.781099     0.6615       0.11  
C2       C      0.8639       0.2844       0.1434      -0.274 
C2       C      0.3639       0.7844       0.1434      -0.274 
C2       C      0.3639       0.2844       0.6434      -0.274 
C2       C      0.8639       0.7844       0.6434      -0.274 
C3       C      0.870199     0.302899     0.138399     0.11  
C3       C      0.3702       0.8029       0.138399     0.11  
C3       C      0.3702       0.302899     0.6384       0.11  
C3       C      0.870199     0.8029       0.6384       0.11  
C2       C      0.8699       0.317501     0.152199    -0.274 
C2       C      0.3699       0.8175       0.152199    -0.274 
C2       C      0.3699       0.317501     0.6522      -0.274 
C2       C      0.8699       0.8175       0.6522      -0.274 
C3       C      0.863799     0.3127       0.170299     0.11  
C3       C      0.3638       0.812701     0.170299     0.11  
C3       C      0.3638       0.3127       0.6703       0.11  
C3       C      0.863799     0.812701     0.6703       0.11  
C1       C      0.877        0.3363       0.1487       0.848 
C1       C      0.376999     0.836299     0.1487       0.848 
C1       C      0.376999     0.3363       0.6487       0.848 
C1       C      0.877        0.836299     0.6487       0.848 
C1       C      0.8608       0.2717       0.1285       0.848 
C1       C      0.3608       0.7717       0.1285       0.848 
C1       C      0.3608       0.2717       0.6285       0.848 
C1       C      0.8608       0.7717       0.6285       0.848 
C1       C      0.8386       0.2976       0.187299     0.848 
C1       C      0.3386       0.7976       0.187299     0.848 
C1       C      0.3386       0.2976       0.6873       0.848 
C1       C      0.8386       0.7976       0.6873       0.848 
C2       C      0.7891       0.2653       0.1212      -0.274 
C2       C      0.289099     0.7653       0.1212      -0.274 
C2       C      0.289099     0.2653       0.6212      -0.274 
C2       C      0.7891       0.7653       0.6212      -0.274 
C3       C      0.790699     0.2676       0.1434       0.11  
C3       C      0.2907       0.7676       0.1434       0.11  
C3       C      0.2907       0.2676       0.6434       0.11  
C3       C      0.790699     0.7676       0.6434       0.11  
C1       C      0.8604       0.2495       0.0518999    0.848 
C1       C      0.3604       0.7495       0.0518999    0.848 
C1       C      0.3604       0.2495       0.551901     0.848 
C1       C      0.8604       0.7495       0.551901     0.848 
H1       H      0.820567     0.367892     0.181991     0.1   
H1       H      0.320568     0.867892     0.181991     0.1   
H1       H      0.320568     0.367892     0.681992     0.1   
H1       H      0.820567     0.867892     0.681992     0.1   
H1       H      0.766939     0.350955     0.166676     0.1   
H1       H      0.266939     0.850954     0.166676     0.1   
H1       H      0.266939     0.350955     0.666676     0.1   
H1       H      0.766939     0.850954     0.666676     0.1   
H1       H      0.895516     0.311969     0.353823     0.1   
H1       H      0.395516     0.811968     0.353823     0.1   
H1       H      0.395516     0.311969     0.853824     0.1   
H1       H      0.895516     0.811968     0.853824     0.1   
H1       H      0.886714     0.427803     0.0822309    0.1   
H1       H      0.386713     0.927804     0.0822309    0.1   
H1       H      0.386713     0.427803     0.582232     0.1   
H1       H      0.886714     0.927804     0.582232     0.1   
H1       H      0.93999      0.439624     0.0548119    0.1   
H1       H      0.439989     0.939623     0.0548119    0.1   
H1       H      0.439989     0.439624     0.554813     0.1   
H1       H      0.93999      0.939623     0.554813     0.1   
H1       H      0.87474      0.44422      0.123887     0.1   
H1       H      0.374739     0.94422      0.123887     0.1   
H1       H      0.374739     0.44422      0.623888     0.1   
H1       H      0.87474      0.94422      0.623888     0.1   
H1       H      0.805918     0.340729     0.262173     0.1   
H1       H      0.305918     0.84073      0.262173     0.1   
H1       H      0.305918     0.340729     0.762172     0.1   
H1       H      0.805918     0.84073      0.762172     0.1   
H1       H      0.800852     0.260072     0.15084      0.1   
H1       H      0.300853     0.760071     0.15084      0.1   
H1       H      0.300853     0.260072     0.650839     0.1   
H1       H      0.800852     0.760071     0.650839     0.1   
Cr1      Cr     0.0465999    0.2726       0.4452       1.859 
Cr1      Cr     0.546601     0.772599     0.4452       1.859 
Cr1      Cr     0.546601     0.2726       0.9452       1.859 
Cr1      Cr     0.0465999    0.772599     0.9452       1.859 
Cr1      Cr     0.16         0.369699     0.4864       1.859 
Cr1      Cr     0.660001     0.8697       0.4864       1.859 
Cr1      Cr     0.660001     0.369699     0.9864       1.859 
Cr1      Cr     0.16         0.8697       0.9864       1.859 
O3       O      0.9563       0.3171       0.4043      -0.587 
O3       O      0.4563       0.817099     0.4043      -0.587 
O3       O      0.4563       0.3171       0.9043      -0.587 
O3       O      0.9563       0.817099     0.9043      -0.587 
O3       O      0.935        0.335601     0.3847      -0.587 
O3       O      0.435        0.8356       0.3847      -0.587 
O3       O      0.435        0.335601     0.8847      -0.587 
O3       O      0.935        0.8356       0.8847      -0.587 
O2       O      0.0885006    0.3765       0.4017      -0.731 
O2       O      0.5885       0.876499     0.4017      -0.731 
O2       O      0.5885       0.3765       0.9017      -0.731 
O2       O      0.0885006    0.876499     0.9017      -0.731 
O3       O      0.1513       0.3999       0.371601    -0.587 
O3       O      0.6513       0.899899     0.371601    -0.587 
O3       O      0.6513       0.3999       0.8716      -0.587 
O3       O      0.1513       0.899899     0.8716      -0.587 
O3       O      0.116101     0.3846       0.4096      -0.587 
O3       O      0.6161       0.8846       0.4096      -0.587 
O3       O      0.6161       0.3846       0.9096      -0.587 
O3       O      0.116101     0.8846       0.9096      -0.587 
O2       O      0.0176996    0.3009       0.423601    -0.731 
O2       O      0.5177       0.8009       0.423601    -0.731 
O2       O      0.5177       0.3009       0.9236      -0.731 
O2       O      0.0176996    0.8009       0.9236      -0.731 
O2       O      0.0518999    0.3391       0.438599    -0.731 
O2       O      0.551901     0.8391       0.438599    -0.731 
O2       O      0.551901     0.3391       0.9386      -0.731 
O2       O      0.0518999    0.8391       0.9386      -0.731 
O2       O      0.0266001    0.272001     0.4276      -0.731 
O2       O      0.526599     0.772        0.4276      -0.731 
O2       O      0.526599     0.272001     0.9276      -0.731 
O2       O      0.0266001    0.772        0.9276      -0.731 
O2       O      0.4879       0.2842       0.0277002   -0.731 
O2       O      0.987899     0.784201     0.0277002   -0.731 
O2       O      0.987899     0.2842       0.527699    -0.731 
O2       O      0.4879       0.784201     0.527699    -0.731 
O2       O      0.0697998    0.2747       0.4538      -0.731 
O2       O      0.5698       0.774699     0.4538      -0.731 
O2       O      0.5698       0.2747       0.953801    -0.731 
O2       O      0.0697998    0.774699     0.953801    -0.731 
O3       O      0.0595001    0.326099     0.4653      -0.587 
O3       O      0.559499     0.8261       0.4653      -0.587 
O3       O      0.559499     0.326099     0.9653      -0.587 
O3       O      0.0595001    0.8261       0.9653      -0.587 
O3       O      0.6967       0.3416       0.00130031  -0.587 
O3       O      0.196701     0.841599     0.00130031  -0.587 
O3       O      0.196701     0.3416       0.5013      -0.587 
O3       O      0.6967       0.841599     0.5013      -0.587 
O3       O      0.179701     0.4726       0.330201    -0.587 
O3       O      0.6797       0.9726       0.330201    -0.587 
O3       O      0.6797       0.4726       0.8302      -0.587 
O3       O      0.179701     0.9726       0.8302      -0.587 
O2       O      0.1866       0.3688       0.4901      -0.731 
O2       O      0.686601     0.8688       0.4901      -0.731 
O2       O      0.686601     0.3688       0.9901      -0.731 
O2       O      0.1866       0.8688       0.9901      -0.731 
O2       O      0.1708       0.461801     0.3593      -0.731 
O2       O      0.670799     0.9618       0.3593      -0.731 
O2       O      0.670799     0.461801     0.8593      -0.731 
O2       O      0.1708       0.9618       0.8593      -0.731 
O2       O      0.1366       0.368401     0.475       -0.731 
O2       O      0.6366       0.8684       0.475       -0.731 
O2       O      0.6366       0.368401     0.975001    -0.731 
O2       O      0.1366       0.8684       0.975001    -0.731 
O2       O      0.1184       0.351501     0.4932      -0.731 
O2       O      0.6184       0.8515       0.4932      -0.731 
O2       O      0.6184       0.351501     0.993199    -0.731 
O2       O      0.1184       0.8515       0.993199    -0.731 
C3       C      0.1683       0.425        0.3489       0.11  
C3       C      0.6683       0.925        0.3489       0.11  
C3       C      0.6683       0.425        0.848899     0.11  
C3       C      0.1683       0.925        0.848899     0.11  
C2       C      0.1791       0.438401     0.335601    -0.274 
C2       C      0.679101     0.9384       0.335601    -0.274 
C2       C      0.679101     0.438401     0.8356      -0.274 
C2       C      0.1791       0.9384       0.8356      -0.274 
C1       C      0.1779       0.458501     0.3423       0.848 
C1       C      0.6779       0.9585       0.3423       0.848 
C1       C      0.6779       0.458501     0.8423       0.848 
C1       C      0.1779       0.9585       0.8423       0.848 
C3       C      0.9839       0.2908       0.409999     0.11  
C3       C      0.4839       0.7908       0.409999     0.11  
C3       C      0.4839       0.2908       0.91         0.11  
C3       C      0.9839       0.7908       0.91         0.11  
C2       C      0.997399     0.2775       0.4134      -0.274 
C2       C      0.4974       0.7775       0.4134      -0.274 
C2       C      0.4974       0.2775       0.9134      -0.274 
C2       C      0.997399     0.7775       0.9134      -0.274 
C1       C      0.0136999    0.283799     0.4224       0.848 
C1       C      0.513701     0.7838       0.4224       0.848 
C1       C      0.513701     0.283799     0.9224       0.848 
C1       C      0.0136999    0.7838       0.9224       0.848 
C2       C      0.0774       0.3519       0.4531      -0.274 
C2       C      0.577401     0.8519       0.4531      -0.274 
C2       C      0.577401     0.3519       0.9531      -0.274 
C2       C      0.0774       0.8519       0.9531      -0.274 
C3       C      0.0885006    0.3551       0.4689       0.11  
C3       C      0.5885       0.8551       0.4689       0.11  
C3       C      0.5885       0.3551       0.9689       0.11  
C3       C      0.0885006    0.8551       0.9689       0.11  
C2       C      0.106599     0.3639       0.4656      -0.274 
C2       C      0.6066       0.8639       0.4656      -0.274 
C2       C      0.6066       0.3639       0.965599    -0.274 
C2       C      0.106599     0.8639       0.965599    -0.274 
C3       C      0.1116       0.3702       0.447099     0.11  
C3       C      0.6116       0.870199     0.447099     0.11  
C3       C      0.6116       0.3702       0.9471       0.11  
C3       C      0.1116       0.870199     0.9471       0.11  
C2       C      0.0978003    0.3699       0.4325      -0.274 
C2       C      0.5978       0.8699       0.4325      -0.274 
C2       C      0.5978       0.3699       0.9325      -0.274 
C2       C      0.0978003    0.8699       0.9325      -0.274 
C3       C      0.0797002    0.3638       0.437301     0.11  
C3       C      0.5797       0.863799     0.437301     0.11  
C3       C      0.5797       0.3638       0.9373       0.11  
C3       C      0.0797002    0.863799     0.9373       0.11  
C1       C      0.101299     0.376999     0.4137       0.848 
C1       C      0.6013       0.877        0.4137       0.848 
C1       C      0.6013       0.376999     0.913699     0.848 
C1       C      0.101299     0.877        0.913699     0.848 
C1       C      0.121499     0.3608       0.4783       0.848 
C1       C      0.6215       0.8608       0.4783       0.848 
C1       C      0.6215       0.3608       0.978299     0.848 
C1       C      0.121499     0.8608       0.978299     0.848 
C1       C      0.0627002    0.3386       0.452399     0.848 
C1       C      0.562699     0.8386       0.452399     0.848 
C1       C      0.562699     0.3386       0.9524       0.848 
C1       C      0.0627002    0.8386       0.9524       0.848 
C2       C      0.128801     0.289099     0.4847      -0.274 
C2       C      0.6288       0.7891       0.4847      -0.274 
C2       C      0.6288       0.289099     0.984699    -0.274 
C2       C      0.128801     0.7891       0.984699    -0.274 
C3       C      0.106599     0.2907       0.4824       0.11  
C3       C      0.6066       0.790699     0.4824       0.11  
C3       C      0.6066       0.2907       0.982401     0.11  
C3       C      0.106599     0.790699     0.982401     0.11  
C1       C      0.6981       0.3604       0.000500647  0.848 
C1       C      0.1981       0.8604       0.000500647  0.848 
C1       C      0.1981       0.3604       0.5005       0.848 
C1       C      0.6981       0.8604       0.5005       0.848 
H1       H      0.0680084    0.320568     0.382107     0.1   
H1       H      0.568009     0.820567     0.382107     0.1   
H1       H      0.568009     0.320568     0.882108     0.1   
H1       H      0.0680084    0.820567     0.882108     0.1   
H1       H      0.0833241    0.266939     0.399046     0.1   
H1       H      0.583325     0.766939     0.399046     0.1   
H1       H      0.583325     0.266939     0.899045     0.1   
H1       H      0.0833241    0.766939     0.899045     0.1   
H1       H      0.167769     0.386713     0.322196     0.1   
H1       H      0.667768     0.886714     0.322196     0.1   
H1       H      0.667768     0.386713     0.822196     0.1   
H1       H      0.167769     0.886714     0.822196     0.1   
H1       H      0.195188     0.439989     0.310376     0.1   
H1       H      0.695187     0.93999      0.310376     0.1   
H1       H      0.695187     0.439989     0.810377     0.1   
H1       H      0.195188     0.93999      0.810377     0.1   
H1       H      0.126112     0.374739     0.30578      0.1   
H1       H      0.626112     0.87474      0.30578      0.1   
H1       H      0.626112     0.374739     0.805779     0.1   
H1       H      0.126112     0.87474      0.805779     0.1   
H1       H      0.987827     0.305918     0.40927      0.1   
H1       H      0.487827     0.805918     0.40927      0.1   
H1       H      0.487827     0.305918     0.90927      0.1   
H1       H      0.987827     0.805918     0.90927      0.1   
H1       H      0.099161     0.300853     0.489929     0.1   
H1       H      0.59916      0.800852     0.489929     0.1   
H1       H      0.59916      0.300853     0.989928     0.1   
H1       H      0.099161     0.800852     0.989928     0.1   
Cr2      Cr     0.0465999    0.4774       0.304801     1.62  
Cr2      Cr     0.546601     0.9774       0.304801     1.62  
Cr2      Cr     0.546601     0.4774       0.8048       1.62  
Cr2      Cr     0.0465999    0.9774       0.8048       1.62  
Cr2      Cr     0.16         0.380299     0.263599     1.62  
Cr2      Cr     0.660001     0.8803       0.263599     1.62  
Cr2      Cr     0.660001     0.380299     0.7636       1.62  
Cr2      Cr     0.16         0.8803       0.7636       1.62  
O2       O      0.9563       0.4329       0.3457      -0.731 
O2       O      0.4563       0.9329       0.3457      -0.731 
O2       O      0.4563       0.4329       0.845699    -0.731 
O2       O      0.9563       0.9329       0.845699    -0.731 
O2       O      0.935        0.4144       0.365301    -0.731 
O2       O      0.435        0.9144       0.365301    -0.731 
O2       O      0.435        0.4144       0.8653      -0.731 
O2       O      0.935        0.9144       0.8653      -0.731 
O2       O      0.0885006    0.3735       0.348301    -0.731 
O2       O      0.5885       0.8735       0.348301    -0.731 
O2       O      0.5885       0.3735       0.8483      -0.731 
O2       O      0.0885006    0.8735       0.8483      -0.731 
O2       O      0.1513       0.3501       0.3784      -0.731 
O2       O      0.6513       0.8501       0.3784      -0.731 
O2       O      0.6513       0.3501       0.8784      -0.731 
O2       O      0.1513       0.8501       0.8784      -0.731 
O2       O      0.116101     0.365399     0.3404      -0.731 
O2       O      0.6161       0.8654       0.3404      -0.731 
O2       O      0.6161       0.365399     0.840401    -0.731 
O2       O      0.116101     0.8654       0.840401    -0.731 
O2       O      0.0176996    0.449101     0.3264      -0.731 
O2       O      0.5177       0.9491       0.3264      -0.731 
O2       O      0.5177       0.449101     0.8264      -0.731 
O2       O      0.0176996    0.9491       0.8264      -0.731 
O2       O      0.0518999    0.410901     0.3114      -0.731 
O2       O      0.551901     0.9109       0.3114      -0.731 
O2       O      0.551901     0.410901     0.8114      -0.731 
O2       O      0.0518999    0.9109       0.8114      -0.731 
O3       O      0.0266001    0.478        0.3224      -0.587 
O3       O      0.526599     0.978        0.3224      -0.587 
O3       O      0.526599     0.478        0.822399    -0.587 
O3       O      0.0266001    0.978        0.822399    -0.587 
O2       O      0.987899     0.4658       0.222299    -0.731 
O2       O      0.4879       0.9658       0.222299    -0.731 
O2       O      0.4879       0.4658       0.7223      -0.731 
O2       O      0.987899     0.9658       0.7223      -0.731 
O3       O      0.0697998    0.4753       0.2962      -0.587 
O3       O      0.5698       0.9753       0.2962      -0.587 
O3       O      0.5698       0.4753       0.7962      -0.587 
O3       O      0.0697998    0.9753       0.7962      -0.587 
O2       O      0.0595001    0.4239       0.284701    -0.731 
O2       O      0.559499     0.9239       0.284701    -0.731 
O2       O      0.559499     0.4239       0.7847      -0.731 
O2       O      0.0595001    0.9239       0.7847      -0.731 
O2       O      0.196701     0.4084       0.248699    -0.731 
O2       O      0.6967       0.908399     0.248699    -0.731 
O2       O      0.6967       0.4084       0.7487      -0.731 
O2       O      0.196701     0.908399     0.7487      -0.731 
O2       O      0.179701     0.277399     0.4198      -0.731 
O2       O      0.6797       0.7774       0.4198      -0.731 
O2       O      0.6797       0.277399     0.919801    -0.731 
O2       O      0.179701     0.7774       0.919801    -0.731 
O3       O      0.1866       0.381201     0.2599      -0.587 
O3       O      0.686601     0.8812       0.2599      -0.587 
O3       O      0.686601     0.381201     0.759899    -0.587 
O3       O      0.1866       0.8812       0.759899    -0.587 
O2       O      0.1708       0.2882       0.390701    -0.731 
O2       O      0.670799     0.7882       0.390701    -0.731 
O2       O      0.670799     0.2882       0.8907      -0.731 
O2       O      0.1708       0.7882       0.8907      -0.731 
O3       O      0.1366       0.3816       0.275       -0.587 
O3       O      0.6366       0.8816       0.275       -0.587 
O3       O      0.6366       0.3816       0.775       -0.587 
O3       O      0.1366       0.8816       0.775       -0.587 
O2       O      0.1184       0.3985       0.2568      -0.731 
O2       O      0.6184       0.8985       0.2568      -0.731 
O2       O      0.6184       0.3985       0.7568      -0.731 
O2       O      0.1184       0.8985       0.7568      -0.731 
F1       F      0.5517       0.00140044   0.3152      -0.566 
F1       F      0.0516997    0.5014       0.3152      -0.566 
F1       F      0.0516997    0.00140044   0.8152      -0.566 
F1       F      0.5517       0.5014       0.8152      -0.566 
F1       F      0.1655       0.3575       0.2743      -0.566 
F1       F      0.665499     0.857499     0.2743      -0.566 
F1       F      0.665499     0.3575       0.7743      -0.566 
F1       F      0.1655       0.857499     0.7743      -0.566 
C3       C      0.1683       0.325001     0.4011       0.11  
C3       C      0.6683       0.825        0.4011       0.11  
C3       C      0.6683       0.325001     0.9011       0.11  
C3       C      0.1683       0.825        0.9011       0.11  
C2       C      0.1791       0.3116       0.4144      -0.274 
C2       C      0.679101     0.8116       0.4144      -0.274 
C2       C      0.679101     0.3116       0.9144      -0.274 
C2       C      0.1791       0.8116       0.9144      -0.274 
C1       C      0.1779       0.2915       0.407701     0.848 
C1       C      0.6779       0.791501     0.407701     0.848 
C1       C      0.6779       0.2915       0.9077       0.848 
C1       C      0.1779       0.791501     0.9077       0.848 
C3       C      0.9839       0.4592       0.339999     0.11  
C3       C      0.4839       0.959199     0.339999     0.11  
C3       C      0.4839       0.4592       0.84         0.11  
C3       C      0.9839       0.959199     0.84         0.11  
C2       C      0.997399     0.472499     0.336601    -0.274 
C2       C      0.4974       0.9725       0.336601    -0.274 
C2       C      0.4974       0.472499     0.8366      -0.274 
C2       C      0.997399     0.9725       0.8366      -0.274 
C1       C      0.0136999    0.466199     0.3276       0.848 
C1       C      0.513701     0.9662       0.3276       0.848 
C1       C      0.513701     0.466199     0.827601     0.848 
C1       C      0.0136999    0.9662       0.827601     0.848 
C2       C      0.0774       0.398101     0.2969      -0.274 
C2       C      0.577401     0.8981       0.2969      -0.274 
C2       C      0.577401     0.398101     0.796901    -0.274 
C2       C      0.0774       0.8981       0.796901    -0.274 
C3       C      0.0885006    0.394901     0.2811       0.11  
C3       C      0.5885       0.8949       0.2811       0.11  
C3       C      0.5885       0.394901     0.781099     0.11  
C3       C      0.0885006    0.8949       0.781099     0.11  
C2       C      0.106599     0.3861       0.2844      -0.274 
C2       C      0.6066       0.886099     0.2844      -0.274 
C2       C      0.6066       0.3861       0.7844      -0.274 
C2       C      0.106599     0.886099     0.7844      -0.274 
C3       C      0.1116       0.3798       0.302899     0.11  
C3       C      0.6116       0.8798       0.302899     0.11  
C3       C      0.6116       0.3798       0.8029       0.11  
C3       C      0.1116       0.8798       0.8029       0.11  
C2       C      0.0978003    0.380101     0.317501    -0.274 
C2       C      0.5978       0.8801       0.317501    -0.274 
C2       C      0.5978       0.380101     0.8175      -0.274 
C2       C      0.0978003    0.8801       0.8175      -0.274 
C3       C      0.0797002    0.3862       0.3127       0.11  
C3       C      0.5797       0.8862       0.3127       0.11  
C3       C      0.5797       0.3862       0.812701     0.11  
C3       C      0.0797002    0.8862       0.812701     0.11  
C1       C      0.101299     0.373        0.3363       0.848 
C1       C      0.6013       0.873        0.3363       0.848 
C1       C      0.6013       0.373        0.836299     0.848 
C1       C      0.101299     0.873        0.836299     0.848 
C1       C      0.121499     0.3892       0.2717       0.848 
C1       C      0.6215       0.889201     0.2717       0.848 
C1       C      0.6215       0.3892       0.7717       0.848 
C1       C      0.121499     0.889201     0.7717       0.848 
C1       C      0.0627002    0.4114       0.2976       0.848 
C1       C      0.562699     0.911401     0.2976       0.848 
C1       C      0.562699     0.4114       0.7976       0.848 
C1       C      0.0627002    0.911401     0.7976       0.848 
C2       C      0.128801     0.460899     0.2653      -0.274 
C2       C      0.6288       0.9609       0.2653      -0.274 
C2       C      0.6288       0.460899     0.7653      -0.274 
C2       C      0.128801     0.9609       0.7653      -0.274 
C3       C      0.106599     0.4593       0.2676       0.11  
C3       C      0.6066       0.959299     0.2676       0.11  
C3       C      0.6066       0.4593       0.7676       0.11  
C3       C      0.106599     0.959299     0.7676       0.11  
C1       C      0.1981       0.389601     0.2495       0.848 
C1       C      0.6981       0.8896       0.2495       0.848 
C1       C      0.6981       0.389601     0.7495       0.848 
C1       C      0.1981       0.8896       0.7495       0.848 
H1       H      0.0680084    0.429433     0.367892     0.1   
H1       H      0.568009     0.929434     0.367892     0.1   
H1       H      0.568009     0.429433     0.867892     0.1   
H1       H      0.0680084    0.929434     0.867892     0.1   
H1       H      0.0833241    0.483061     0.350955     0.1   
H1       H      0.583325     0.98306      0.350955     0.1   
H1       H      0.583325     0.483061     0.850954     0.1   
H1       H      0.0833241    0.98306      0.850954     0.1   
H1       H      0.167769     0.363286     0.427803     0.1   
H1       H      0.667768     0.863286     0.427803     0.1   
H1       H      0.667768     0.363286     0.927804     0.1   
H1       H      0.167769     0.863286     0.927804     0.1   
H1       H      0.126112     0.37526      0.44422      0.1   
H1       H      0.626112     0.875261     0.44422      0.1   
H1       H      0.626112     0.37526      0.94422      0.1   
H1       H      0.126112     0.875261     0.94422      0.1   
H1       H      0.987827     0.444082     0.340729     0.1   
H1       H      0.487827     0.944083     0.340729     0.1   
H1       H      0.487827     0.444082     0.84073      0.1   
H1       H      0.987827     0.944083     0.84073      0.1   
H1       H      0.099161     0.449147     0.260072     0.1   
H1       H      0.59916      0.949148     0.260072     0.1   
H1       H      0.59916      0.449147     0.760071     0.1   
H1       H      0.099161     0.949148     0.760071     0.1   
Cr1      Cr     0.7034       0.4774       0.4452       1.859 
Cr1      Cr     0.2034       0.9774       0.4452       1.859 
Cr1      Cr     0.2034       0.4774       0.9452       1.859 
Cr1      Cr     0.7034       0.9774       0.9452       1.859 
Cr1      Cr     0.590001     0.380299     0.4864       1.859 
Cr1      Cr     0.0899998    0.8803       0.4864       1.859 
Cr1      Cr     0.0899998    0.380299     0.9864       1.859 
Cr1      Cr     0.590001     0.8803       0.9864       1.859 
O2       O      0.793701     0.4329       0.4043      -0.731 
O2       O      0.2937       0.9329       0.4043      -0.731 
O2       O      0.2937       0.4329       0.9043      -0.731 
O2       O      0.793701     0.9329       0.9043      -0.731 
O2       O      0.814999     0.4144       0.3847      -0.731 
O2       O      0.315        0.9144       0.3847      -0.731 
O2       O      0.315        0.4144       0.8847      -0.731 
O2       O      0.814999     0.9144       0.8847      -0.731 
O2       O      0.6615       0.3735       0.4017      -0.731 
O2       O      0.1615       0.8735       0.4017      -0.731 
O2       O      0.1615       0.3735       0.9017      -0.731 
O2       O      0.6615       0.8735       0.9017      -0.731 
O3       O      0.598699     0.3501       0.371601    -0.587 
O3       O      0.0987001    0.8501       0.371601    -0.587 
O3       O      0.0987001    0.3501       0.8716      -0.587 
O3       O      0.598699     0.8501       0.8716      -0.587 
O3       O      0.6339       0.365399     0.4096      -0.587 
O3       O      0.1339       0.8654       0.4096      -0.587 
O3       O      0.1339       0.365399     0.9096      -0.587 
O3       O      0.6339       0.8654       0.9096      -0.587 
O2       O      0.732299     0.449101     0.423601    -0.731 
O2       O      0.2323       0.9491       0.423601    -0.731 
O2       O      0.2323       0.449101     0.9236      -0.731 
O2       O      0.732299     0.9491       0.9236      -0.731 
O2       O      0.6981       0.410901     0.438599    -0.731 
O2       O      0.1981       0.9109       0.438599    -0.731 
O2       O      0.1981       0.410901     0.9386      -0.731 
O2       O      0.6981       0.9109       0.9386      -0.731 
O2       O      0.7234       0.478        0.4276      -0.731 
O2       O      0.2234       0.978        0.4276      -0.731 
O2       O      0.2234       0.478        0.9276      -0.731 
O2       O      0.7234       0.978        0.9276      -0.731 
O2       O      0.2621       0.4658       0.0277002   -0.731 
O2       O      0.7621       0.9658       0.0277002   -0.731 
O2       O      0.7621       0.4658       0.527699    -0.731 
O2       O      0.2621       0.9658       0.527699    -0.731 
O2       O      0.680201     0.4753       0.4538      -0.731 
O2       O      0.1802       0.9753       0.4538      -0.731 
O2       O      0.1802       0.4753       0.953801    -0.731 
O2       O      0.680201     0.9753       0.953801    -0.731 
O3       O      0.6905       0.4239       0.4653      -0.587 
O3       O      0.1905       0.9239       0.4653      -0.587 
O3       O      0.1905       0.4239       0.9653      -0.587 
O3       O      0.6905       0.9239       0.9653      -0.587 
O3       O      0.0533004    0.4084       0.00130031  -0.587 
O3       O      0.5533       0.908399     0.00130031  -0.587 
O3       O      0.5533       0.4084       0.5013      -0.587 
O3       O      0.0533004    0.908399     0.5013      -0.587 
O3       O      0.5703       0.277399     0.330201    -0.587 
O3       O      0.0703004    0.7774       0.330201    -0.587 
O3       O      0.0703004    0.277399     0.8302      -0.587 
O3       O      0.5703       0.7774       0.8302      -0.587 
O2       O      0.5634       0.381201     0.4901      -0.731 
O2       O      0.0633997    0.8812       0.4901      -0.731 
O2       O      0.0633997    0.381201     0.9901      -0.731 
O2       O      0.5634       0.8812       0.9901      -0.731 
O2       O      0.5792       0.2882       0.3593      -0.731 
O2       O      0.0791996    0.7882       0.3593      -0.731 
O2       O      0.0791996    0.2882       0.8593      -0.731 
O2       O      0.5792       0.7882       0.8593      -0.731 
O2       O      0.613401     0.3816       0.475       -0.731 
O2       O      0.1134       0.8816       0.475       -0.731 
O2       O      0.1134       0.3816       0.975001    -0.731 
O2       O      0.613401     0.8816       0.975001    -0.731 
O2       O      0.631599     0.3985       0.4932      -0.731 
O2       O      0.1316       0.8985       0.4932      -0.731 
O2       O      0.1316       0.3985       0.993199    -0.731 
O2       O      0.631599     0.8985       0.993199    -0.731 
C3       C      0.581699     0.325001     0.3489       0.11  
C3       C      0.0817001    0.825        0.3489       0.11  
C3       C      0.0817001    0.325001     0.848899     0.11  
C3       C      0.581699     0.825        0.848899     0.11  
C2       C      0.5709       0.3116       0.335601    -0.274 
C2       C      0.0708998    0.8116       0.335601    -0.274 
C2       C      0.0708998    0.3116       0.8356      -0.274 
C2       C      0.5709       0.8116       0.8356      -0.274 
C1       C      0.572101     0.2915       0.3423       0.848 
C1       C      0.0721       0.791501     0.3423       0.848 
C1       C      0.0721       0.2915       0.8423       0.848 
C1       C      0.572101     0.791501     0.8423       0.848 
C3       C      0.766101     0.4592       0.409999     0.11  
C3       C      0.2661       0.959199     0.409999     0.11  
C3       C      0.2661       0.4592       0.91         0.11  
C3       C      0.766101     0.959199     0.91         0.11  
C2       C      0.7526       0.472499     0.4134      -0.274 
C2       C      0.2526       0.9725       0.4134      -0.274 
C2       C      0.2526       0.472499     0.9134      -0.274 
C2       C      0.7526       0.9725       0.9134      -0.274 
C1       C      0.7363       0.466199     0.4224       0.848 
C1       C      0.2363       0.9662       0.4224       0.848 
C1       C      0.2363       0.466199     0.9224       0.848 
C1       C      0.7363       0.9662       0.9224       0.848 
C2       C      0.6726       0.398101     0.4531      -0.274 
C2       C      0.1726       0.8981       0.4531      -0.274 
C2       C      0.1726       0.398101     0.9531      -0.274 
C2       C      0.6726       0.8981       0.9531      -0.274 
C3       C      0.6615       0.394901     0.4689       0.11  
C3       C      0.1615       0.8949       0.4689       0.11  
C3       C      0.1615       0.394901     0.9689       0.11  
C3       C      0.6615       0.8949       0.9689       0.11  
C2       C      0.6434       0.3861       0.4656      -0.274 
C2       C      0.1434       0.886099     0.4656      -0.274 
C2       C      0.1434       0.3861       0.965599    -0.274 
C2       C      0.6434       0.886099     0.965599    -0.274 
C3       C      0.6384       0.3798       0.447099     0.11  
C3       C      0.138399     0.8798       0.447099     0.11  
C3       C      0.138399     0.3798       0.9471       0.11  
C3       C      0.6384       0.8798       0.9471       0.11  
C2       C      0.6522       0.380101     0.4325      -0.274 
C2       C      0.152199     0.8801       0.4325      -0.274 
C2       C      0.152199     0.380101     0.9325      -0.274 
C2       C      0.6522       0.8801       0.9325      -0.274 
C3       C      0.6703       0.3862       0.437301     0.11  
C3       C      0.170299     0.8862       0.437301     0.11  
C3       C      0.170299     0.3862       0.9373       0.11  
C3       C      0.6703       0.8862       0.9373       0.11  
C1       C      0.6487       0.373        0.4137       0.848 
C1       C      0.1487       0.873        0.4137       0.848 
C1       C      0.1487       0.373        0.913699     0.848 
C1       C      0.6487       0.873        0.913699     0.848 
C1       C      0.6285       0.3892       0.4783       0.848 
C1       C      0.1285       0.889201     0.4783       0.848 
C1       C      0.1285       0.3892       0.978299     0.848 
C1       C      0.6285       0.889201     0.978299     0.848 
C1       C      0.6873       0.4114       0.452399     0.848 
C1       C      0.187299     0.911401     0.452399     0.848 
C1       C      0.187299     0.4114       0.9524       0.848 
C1       C      0.6873       0.911401     0.9524       0.848 
C2       C      0.6212       0.460899     0.4847      -0.274 
C2       C      0.1212       0.9609       0.4847      -0.274 
C2       C      0.1212       0.460899     0.984699    -0.274 
C2       C      0.6212       0.9609       0.984699    -0.274 
C3       C      0.6434       0.4593       0.4824       0.11  
C3       C      0.1434       0.959299     0.4824       0.11  
C3       C      0.1434       0.4593       0.982401     0.11  
C3       C      0.6434       0.959299     0.982401     0.11  
C1       C      0.0518999    0.389601     0.000500647  0.848 
C1       C      0.551901     0.8896       0.000500647  0.848 
C1       C      0.551901     0.389601     0.5005       0.848 
C1       C      0.0518999    0.8896       0.5005       0.848 
H1       H      0.681992     0.429433     0.382107     0.1   
H1       H      0.181991     0.929434     0.382107     0.1   
H1       H      0.181991     0.429433     0.882108     0.1   
H1       H      0.681992     0.929434     0.882108     0.1   
H1       H      0.666676     0.483061     0.399046     0.1   
H1       H      0.166676     0.98306      0.399046     0.1   
H1       H      0.166676     0.483061     0.899045     0.1   
H1       H      0.666676     0.98306      0.899045     0.1   
H1       H      0.853824     0.354484     0.438032     0.1   
H1       H      0.353823     0.854483     0.438032     0.1   
H1       H      0.353823     0.354484     0.938032     0.1   
H1       H      0.853824     0.854483     0.938032     0.1   
H1       H      0.582232     0.363286     0.322196     0.1   
H1       H      0.0822309    0.863286     0.322196     0.1   
H1       H      0.0822309    0.363286     0.822196     0.1   
H1       H      0.582232     0.863286     0.822196     0.1   
H1       H      0.554813     0.310011     0.310376     0.1   
H1       H      0.0548119    0.810011     0.310376     0.1   
H1       H      0.0548119    0.310011     0.810377     0.1   
H1       H      0.554813     0.810011     0.810377     0.1   
H1       H      0.623888     0.37526      0.30578      0.1   
H1       H      0.123887     0.875261     0.30578      0.1   
H1       H      0.123887     0.37526      0.805779     0.1   
H1       H      0.623888     0.875261     0.805779     0.1   
H1       H      0.762172     0.444082     0.40927      0.1   
H1       H      0.262173     0.944083     0.40927      0.1   
H1       H      0.262173     0.444082     0.90927      0.1   
H1       H      0.762172     0.944083     0.90927      0.1   
H1       H      0.650839     0.449147     0.489929     0.1   
H1       H      0.15084      0.949148     0.489929     0.1   
H1       H      0.15084      0.449147     0.989928     0.1   
H1       H      0.650839     0.949148     0.989928     0.1   
Cr1      Cr     0.7034       0.2726       0.304801     1.859 
Cr1      Cr     0.2034       0.772599     0.304801     1.859 
Cr1      Cr     0.2034       0.2726       0.8048       1.859 
Cr1      Cr     0.7034       0.772599     0.8048       1.859 
Cr1      Cr     0.590001     0.369699     0.263599     1.859 
Cr1      Cr     0.0899998    0.8697       0.263599     1.859 
Cr1      Cr     0.0899998    0.369699     0.7636       1.859 
Cr1      Cr     0.590001     0.8697       0.7636       1.859 
O2       O      0.793701     0.3171       0.3457      -0.731 
O2       O      0.2937       0.817099     0.3457      -0.731 
O2       O      0.2937       0.3171       0.845699    -0.731 
O2       O      0.793701     0.817099     0.845699    -0.731 
O2       O      0.814999     0.335601     0.365301    -0.731 
O2       O      0.315        0.8356       0.365301    -0.731 
O2       O      0.315        0.335601     0.8653      -0.731 
O2       O      0.814999     0.8356       0.8653      -0.731 
O2       O      0.6615       0.3765       0.348301    -0.731 
O2       O      0.1615       0.876499     0.348301    -0.731 
O2       O      0.1615       0.3765       0.8483      -0.731 
O2       O      0.6615       0.876499     0.8483      -0.731 
O2       O      0.598699     0.3999       0.3784      -0.731 
O2       O      0.0987001    0.899899     0.3784      -0.731 
O2       O      0.0987001    0.3999       0.8784      -0.731 
O2       O      0.598699     0.899899     0.8784      -0.731 
O2       O      0.6339       0.3846       0.3404      -0.731 
O2       O      0.1339       0.8846       0.3404      -0.731 
O2       O      0.1339       0.3846       0.840401    -0.731 
O2       O      0.6339       0.8846       0.840401    -0.731 
O3       O      0.732299     0.3009       0.3264      -0.587 
O3       O      0.2323       0.8009       0.3264      -0.587 
O3       O      0.2323       0.3009       0.8264      -0.587 
O3       O      0.732299     0.8009       0.8264      -0.587 
O3       O      0.6981       0.3391       0.3114      -0.587 
O3       O      0.1981       0.8391       0.3114      -0.587 
O3       O      0.1981       0.3391       0.8114      -0.587 
O3       O      0.6981       0.8391       0.8114      -0.587 
O2       O      0.7234       0.272001     0.3224      -0.731 
O2       O      0.2234       0.772        0.3224      -0.731 
O2       O      0.2234       0.272001     0.822399    -0.731 
O2       O      0.7234       0.772        0.822399    -0.731 
O2       O      0.7621       0.2842       0.222299    -0.731 
O2       O      0.2621       0.784201     0.222299    -0.731 
O2       O      0.2621       0.2842       0.7223      -0.731 
O2       O      0.7621       0.784201     0.7223      -0.731 
O2       O      0.680201     0.2747       0.2962      -0.731 
O2       O      0.1802       0.774699     0.2962      -0.731 
O2       O      0.1802       0.2747       0.7962      -0.731 
O2       O      0.680201     0.774699     0.7962      -0.731 
O2       O      0.6905       0.326099     0.284701    -0.731 
O2       O      0.1905       0.8261       0.284701    -0.731 
O2       O      0.1905       0.326099     0.7847      -0.731 
O2       O      0.6905       0.8261       0.7847      -0.731 
O2       O      0.5533       0.3416       0.248699    -0.731 
O2       O      0.0533004    0.841599     0.248699    -0.731 
O2       O      0.0533004    0.3416       0.7487      -0.731 
O2       O      0.5533       0.841599     0.7487      -0.731 
O2       O      0.5703       0.4726       0.4198      -0.731 
O2       O      0.0703004    0.9726       0.4198      -0.731 
O2       O      0.0703004    0.4726       0.919801    -0.731 
O2       O      0.5703       0.9726       0.919801    -0.731 
O2       O      0.5634       0.3688       0.2599      -0.731 
O2       O      0.0633997    0.8688       0.2599      -0.731 
O2       O      0.0633997    0.3688       0.759899    -0.731 
O2       O      0.5634       0.8688       0.759899    -0.731 
O3       O      0.5792       0.461801     0.390701    -0.587 
O3       O      0.0791996    0.9618       0.390701    -0.587 
O3       O      0.0791996    0.461801     0.8907      -0.587 
O3       O      0.5792       0.9618       0.8907      -0.587 
O2       O      0.613401     0.368401     0.275       -0.731 
O2       O      0.1134       0.8684       0.275       -0.731 
O2       O      0.1134       0.368401     0.775       -0.731 
O2       O      0.613401     0.8684       0.775       -0.731 
O3       O      0.631599     0.351501     0.2568      -0.587 
O3       O      0.1316       0.8515       0.2568      -0.587 
O3       O      0.1316       0.351501     0.7568      -0.587 
O3       O      0.631599     0.8515       0.7568      -0.587 
C3       C      0.581699     0.425        0.4011       0.11  
C3       C      0.0817001    0.925        0.4011       0.11  
C3       C      0.0817001    0.425        0.9011       0.11  
C3       C      0.581699     0.925        0.9011       0.11  
C2       C      0.5709       0.438401     0.4144      -0.274 
C2       C      0.0708998    0.9384       0.4144      -0.274 
C2       C      0.0708998    0.438401     0.9144      -0.274 
C2       C      0.5709       0.9384       0.9144      -0.274 
C1       C      0.572101     0.458501     0.407701     0.848 
C1       C      0.0721       0.9585       0.407701     0.848 
C1       C      0.0721       0.458501     0.9077       0.848 
C1       C      0.572101     0.9585       0.9077       0.848 
C3       C      0.766101     0.2908       0.339999     0.11  
C3       C      0.2661       0.7908       0.339999     0.11  
C3       C      0.2661       0.2908       0.84         0.11  
C3       C      0.766101     0.7908       0.84         0.11  
C2       C      0.7526       0.2775       0.336601    -0.274 
C2       C      0.2526       0.7775       0.336601    -0.274 
C2       C      0.2526       0.2775       0.8366      -0.274 
C2       C      0.7526       0.7775       0.8366      -0.274 
C1       C      0.7363       0.283799     0.3276       0.848 
C1       C      0.2363       0.7838       0.3276       0.848 
C1       C      0.2363       0.283799     0.827601     0.848 
C1       C      0.7363       0.7838       0.827601     0.848 
C2       C      0.6726       0.3519       0.2969      -0.274 
C2       C      0.1726       0.8519       0.2969      -0.274 
C2       C      0.1726       0.3519       0.796901    -0.274 
C2       C      0.6726       0.8519       0.796901    -0.274 
C3       C      0.6615       0.3551       0.2811       0.11  
C3       C      0.1615       0.8551       0.2811       0.11  
C3       C      0.1615       0.3551       0.781099     0.11  
C3       C      0.6615       0.8551       0.781099     0.11  
C2       C      0.6434       0.3639       0.2844      -0.274 
C2       C      0.1434       0.8639       0.2844      -0.274 
C2       C      0.1434       0.3639       0.7844      -0.274 
C2       C      0.6434       0.8639       0.7844      -0.274 
C3       C      0.6384       0.3702       0.302899     0.11  
C3       C      0.138399     0.870199     0.302899     0.11  
C3       C      0.138399     0.3702       0.8029       0.11  
C3       C      0.6384       0.870199     0.8029       0.11  
C2       C      0.6522       0.3699       0.317501    -0.274 
C2       C      0.152199     0.8699       0.317501    -0.274 
C2       C      0.152199     0.3699       0.8175      -0.274 
C2       C      0.6522       0.8699       0.8175      -0.274 
C3       C      0.6703       0.3638       0.3127       0.11  
C3       C      0.170299     0.863799     0.3127       0.11  
C3       C      0.170299     0.3638       0.812701     0.11  
C3       C      0.6703       0.863799     0.812701     0.11  
C1       C      0.6487       0.376999     0.3363       0.848 
C1       C      0.1487       0.877        0.3363       0.848 
C1       C      0.1487       0.376999     0.836299     0.848 
C1       C      0.6487       0.877        0.836299     0.848 
C1       C      0.6285       0.3608       0.2717       0.848 
C1       C      0.1285       0.8608       0.2717       0.848 
C1       C      0.1285       0.3608       0.7717       0.848 
C1       C      0.6285       0.8608       0.7717       0.848 
C1       C      0.6873       0.3386       0.2976       0.848 
C1       C      0.187299     0.8386       0.2976       0.848 
C1       C      0.187299     0.3386       0.7976       0.848 
C1       C      0.6873       0.8386       0.7976       0.848 
C2       C      0.6212       0.289099     0.2653      -0.274 
C2       C      0.1212       0.7891       0.2653      -0.274 
C2       C      0.1212       0.289099     0.7653      -0.274 
C2       C      0.6212       0.7891       0.7653      -0.274 
C3       C      0.6434       0.2907       0.2676       0.11  
C3       C      0.1434       0.790699     0.2676       0.11  
C3       C      0.1434       0.2907       0.7676       0.11  
C3       C      0.6434       0.790699     0.7676       0.11  
C1       C      0.551901     0.3604       0.2495       0.848 
C1       C      0.0518999    0.8604       0.2495       0.848 
C1       C      0.0518999    0.3604       0.7495       0.848 
C1       C      0.551901     0.8604       0.7495       0.848 
H1       H      0.681992     0.320568     0.367892     0.1   
H1       H      0.181991     0.820567     0.367892     0.1   
H1       H      0.181991     0.320568     0.867892     0.1   
H1       H      0.681992     0.820567     0.867892     0.1   
H1       H      0.666676     0.266939     0.350955     0.1   
H1       H      0.166676     0.766939     0.350955     0.1   
H1       H      0.166676     0.266939     0.850954     0.1   
H1       H      0.666676     0.766939     0.850954     0.1   
H1       H      0.853824     0.395516     0.311969     0.1   
H1       H      0.353823     0.895516     0.311969     0.1   
H1       H      0.353823     0.395516     0.811968     0.1   
H1       H      0.853824     0.895516     0.811968     0.1   
H1       H      0.582232     0.386713     0.427803     0.1   
H1       H      0.0822309    0.886714     0.427803     0.1   
H1       H      0.0822309    0.386713     0.927804     0.1   
H1       H      0.582232     0.886714     0.927804     0.1   
H1       H      0.554813     0.439989     0.439624     0.1   
H1       H      0.0548119    0.93999      0.439624     0.1   
H1       H      0.0548119    0.439989     0.939623     0.1   
H1       H      0.554813     0.93999      0.939623     0.1   
H1       H      0.623888     0.374739     0.44422      0.1   
H1       H      0.123887     0.87474      0.44422      0.1   
H1       H      0.123887     0.374739     0.94422      0.1   
H1       H      0.623888     0.87474      0.94422      0.1   
H1       H      0.762172     0.305918     0.340729     0.1   
H1       H      0.262173     0.805918     0.340729     0.1   
H1       H      0.262173     0.305918     0.84073      0.1   
H1       H      0.762172     0.805918     0.84073      0.1   
H1       H      0.650839     0.300853     0.260072     0.1   
H1       H      0.15084      0.800852     0.260072     0.1   
H1       H      0.15084      0.300853     0.760071     0.1   
H1       H      0.650839     0.800852     0.760071     0.1   
Cr1      Cr     0.4452       0.0465999    0.2726       1.859 
Cr1      Cr     0.9452       0.546601     0.2726       1.859 
Cr1      Cr     0.9452       0.0465999    0.772599     1.859 
Cr1      Cr     0.4452       0.546601     0.772599     1.859 
Cr2      Cr     0.4864       0.16         0.369699     1.62  
Cr2      Cr     0.9864       0.660001     0.369699     1.62  
Cr2      Cr     0.9864       0.16         0.8697       1.62  
Cr2      Cr     0.4864       0.660001     0.8697       1.62  
O2       O      0.9043       0.4563       0.3171      -0.731 
O2       O      0.4043       0.9563       0.3171      -0.731 
O2       O      0.4043       0.4563       0.817099    -0.731 
O2       O      0.9043       0.9563       0.817099    -0.731 
O2       O      0.8847       0.435        0.335601    -0.731 
O2       O      0.3847       0.935        0.335601    -0.731 
O2       O      0.3847       0.435        0.8356      -0.731 
O2       O      0.8847       0.935        0.8356      -0.731 
O2       O      0.4017       0.0885006    0.3765      -0.731 
O2       O      0.9017       0.5885       0.3765      -0.731 
O2       O      0.9017       0.0885006    0.876499    -0.731 
O2       O      0.4017       0.5885       0.876499    -0.731 
O2       O      0.371601     0.1513       0.3999      -0.731 
O2       O      0.8716       0.6513       0.3999      -0.731 
O2       O      0.8716       0.1513       0.899899    -0.731 
O2       O      0.371601     0.6513       0.899899    -0.731 
O2       O      0.4096       0.116101     0.3846      -0.731 
O2       O      0.9096       0.6161       0.3846      -0.731 
O2       O      0.9096       0.116101     0.8846      -0.731 
O2       O      0.4096       0.6161       0.8846      -0.731 
O3       O      0.423601     0.0176996    0.3009      -0.587 
O3       O      0.9236       0.5177       0.3009      -0.587 
O3       O      0.9236       0.0176996    0.8009      -0.587 
O3       O      0.423601     0.5177       0.8009      -0.587 
O3       O      0.438599     0.0518999    0.3391      -0.587 
O3       O      0.9386       0.551901     0.3391      -0.587 
O3       O      0.9386       0.0518999    0.8391      -0.587 
O3       O      0.438599     0.551901     0.8391      -0.587 
O2       O      0.4276       0.0266001    0.272001    -0.731 
O2       O      0.9276       0.526599     0.272001    -0.731 
O2       O      0.9276       0.0266001    0.772       -0.731 
O2       O      0.4276       0.526599     0.772       -0.731 
O3       O      0.0277002    0.4879       0.2842      -0.587 
O3       O      0.527699     0.987899     0.2842      -0.587 
O3       O      0.527699     0.4879       0.784201    -0.587 
O3       O      0.0277002    0.987899     0.784201    -0.587 
O2       O      0.4538       0.0697998    0.2747      -0.731 
O2       O      0.953801     0.5698       0.2747      -0.731 
O2       O      0.953801     0.0697998    0.774699    -0.731 
O2       O      0.4538       0.5698       0.774699    -0.731 
O2       O      0.4653       0.0595001    0.326099    -0.731 
O2       O      0.9653       0.559499     0.326099    -0.731 
O2       O      0.9653       0.0595001    0.8261      -0.731 
O2       O      0.4653       0.559499     0.8261      -0.731 
O2       O      0.5013       0.196701     0.3416      -0.731 
O2       O      0.00130031   0.6967       0.3416      -0.731 
O2       O      0.00130031   0.196701     0.841599    -0.731 
O2       O      0.5013       0.6967       0.841599    -0.731 
O2       O      0.330201     0.179701     0.4726      -0.731 
O2       O      0.8302       0.6797       0.4726      -0.731 
O2       O      0.8302       0.179701     0.9726      -0.731 
O2       O      0.330201     0.6797       0.9726      -0.731 
O3       O      0.4901       0.1866       0.3688      -0.587 
O3       O      0.9901       0.686601     0.3688      -0.587 
O3       O      0.9901       0.1866       0.8688      -0.587 
O3       O      0.4901       0.686601     0.8688      -0.587 
O3       O      0.3593       0.1708       0.461801    -0.587 
O3       O      0.8593       0.670799     0.461801    -0.587 
O3       O      0.8593       0.1708       0.9618      -0.587 
O3       O      0.3593       0.670799     0.9618      -0.587 
O3       O      0.475        0.1366       0.368401    -0.587 
O3       O      0.975001     0.6366       0.368401    -0.587 
O3       O      0.975001     0.1366       0.8684      -0.587 
O3       O      0.475        0.6366       0.8684      -0.587 
O2       O      0.4932       0.1184       0.351501    -0.731 
O2       O      0.993199     0.6184       0.351501    -0.731 
O2       O      0.993199     0.1184       0.8515      -0.731 
O2       O      0.4932       0.6184       0.8515      -0.731 
F1       F      0.475699     0.1655       0.3925      -0.566 
F1       F      0.9757       0.665499     0.3925      -0.566 
F1       F      0.9757       0.1655       0.892499    -0.566 
F1       F      0.475699     0.665499     0.892499    -0.566 
C3       C      0.3489       0.1683       0.425        0.11  
C3       C      0.848899     0.6683       0.425        0.11  
C3       C      0.848899     0.1683       0.925        0.11  
C3       C      0.3489       0.6683       0.925        0.11  
C2       C      0.335601     0.1791       0.438401    -0.274 
C2       C      0.8356       0.679101     0.438401    -0.274 
C2       C      0.8356       0.1791       0.9384      -0.274 
C2       C      0.335601     0.679101     0.9384      -0.274 
C1       C      0.3423       0.1779       0.458501     0.848 
C1       C      0.8423       0.6779       0.458501     0.848 
C1       C      0.8423       0.1779       0.9585       0.848 
C1       C      0.3423       0.6779       0.9585       0.848 
C3       C      0.91         0.4839       0.2908       0.11  
C3       C      0.409999     0.9839       0.2908       0.11  
C3       C      0.409999     0.4839       0.7908       0.11  
C3       C      0.91         0.9839       0.7908       0.11  
C2       C      0.9134       0.4974       0.2775      -0.274 
C2       C      0.4134       0.997399     0.2775      -0.274 
C2       C      0.4134       0.4974       0.7775      -0.274 
C2       C      0.9134       0.997399     0.7775      -0.274 
C1       C      0.4224       0.0136999    0.283799     0.848 
C1       C      0.9224       0.513701     0.283799     0.848 
C1       C      0.9224       0.0136999    0.7838       0.848 
C1       C      0.4224       0.513701     0.7838       0.848 
C2       C      0.4531       0.0774       0.3519      -0.274 
C2       C      0.9531       0.577401     0.3519      -0.274 
C2       C      0.9531       0.0774       0.8519      -0.274 
C2       C      0.4531       0.577401     0.8519      -0.274 
C3       C      0.4689       0.0885006    0.3551       0.11  
C3       C      0.9689       0.5885       0.3551       0.11  
C3       C      0.9689       0.0885006    0.8551       0.11  
C3       C      0.4689       0.5885       0.8551       0.11  
C2       C      0.4656       0.106599     0.3639      -0.274 
C2       C      0.965599     0.6066       0.3639      -0.274 
C2       C      0.965599     0.106599     0.8639      -0.274 
C2       C      0.4656       0.6066       0.8639      -0.274 
C3       C      0.447099     0.1116       0.3702       0.11  
C3       C      0.9471       0.6116       0.3702       0.11  
C3       C      0.9471       0.1116       0.870199     0.11  
C3       C      0.447099     0.6116       0.870199     0.11  
C2       C      0.4325       0.0978003    0.3699      -0.274 
C2       C      0.9325       0.5978       0.3699      -0.274 
C2       C      0.9325       0.0978003    0.8699      -0.274 
C2       C      0.4325       0.5978       0.8699      -0.274 
C3       C      0.437301     0.0797002    0.3638       0.11  
C3       C      0.9373       0.5797       0.3638       0.11  
C3       C      0.9373       0.0797002    0.863799     0.11  
C3       C      0.437301     0.5797       0.863799     0.11  
C1       C      0.4137       0.101299     0.376999     0.848 
C1       C      0.913699     0.6013       0.376999     0.848 
C1       C      0.913699     0.101299     0.877        0.848 
C1       C      0.4137       0.6013       0.877        0.848 
C1       C      0.4783       0.121499     0.3608       0.848 
C1       C      0.978299     0.6215       0.3608       0.848 
C1       C      0.978299     0.121499     0.8608       0.848 
C1       C      0.4783       0.6215       0.8608       0.848 
C1       C      0.452399     0.0627002    0.3386       0.848 
C1       C      0.9524       0.562699     0.3386       0.848 
C1       C      0.9524       0.0627002    0.8386       0.848 
C1       C      0.452399     0.562699     0.8386       0.848 
C2       C      0.4847       0.128801     0.289099    -0.274 
C2       C      0.984699     0.6288       0.289099    -0.274 
C2       C      0.984699     0.128801     0.7891      -0.274 
C2       C      0.4847       0.6288       0.7891      -0.274 
C3       C      0.4824       0.106599     0.2907       0.11  
C3       C      0.982401     0.6066       0.2907       0.11  
C3       C      0.982401     0.106599     0.790699     0.11  
C3       C      0.4824       0.6066       0.790699     0.11  
C1       C      0.5005       0.1981       0.3604       0.848 
C1       C      0.000500647  0.6981       0.3604       0.848 
C1       C      0.000500647  0.1981       0.8604       0.848 
C1       C      0.5005       0.6981       0.8604       0.848 
H1       H      0.382107     0.0680084    0.320568     0.1   
H1       H      0.882108     0.568009     0.320568     0.1   
H1       H      0.882108     0.0680084    0.820567     0.1   
H1       H      0.382107     0.568009     0.820567     0.1   
H1       H      0.399046     0.0833241    0.266939     0.1   
H1       H      0.899045     0.583325     0.266939     0.1   
H1       H      0.899045     0.0833241    0.766939     0.1   
H1       H      0.399046     0.583325     0.766939     0.1   
H1       H      0.322196     0.167769     0.386713     0.1   
H1       H      0.822196     0.667768     0.386713     0.1   
H1       H      0.822196     0.167769     0.886714     0.1   
H1       H      0.322196     0.667768     0.886714     0.1   
H1       H      0.310376     0.195188     0.439989     0.1   
H1       H      0.810377     0.695187     0.439989     0.1   
H1       H      0.810377     0.195188     0.93999      0.1   
H1       H      0.310376     0.695187     0.93999      0.1   
H1       H      0.30578      0.126112     0.374739     0.1   
H1       H      0.805779     0.626112     0.374739     0.1   
H1       H      0.805779     0.126112     0.87474      0.1   
H1       H      0.30578      0.626112     0.87474      0.1   
H1       H      0.90927      0.487827     0.305918     0.1   
H1       H      0.40927      0.987827     0.305918     0.1   
H1       H      0.40927      0.487827     0.805918     0.1   
H1       H      0.90927      0.987827     0.805918     0.1   
H1       H      0.489929     0.099161     0.300853     0.1   
H1       H      0.989928     0.59916      0.300853     0.1   
H1       H      0.989928     0.099161     0.800852     0.1   
H1       H      0.489929     0.59916      0.800852     0.1   
Cr1      Cr     0.304801     0.0465999    0.4774       1.859 
Cr1      Cr     0.8048       0.546601     0.4774       1.859 
Cr1      Cr     0.8048       0.0465999    0.9774       1.859 
Cr1      Cr     0.304801     0.546601     0.9774       1.859 
Cr1      Cr     0.263599     0.16         0.380299     1.859 
Cr1      Cr     0.7636       0.660001     0.380299     1.859 
Cr1      Cr     0.7636       0.16         0.8803       1.859 
Cr1      Cr     0.263599     0.660001     0.8803       1.859 
O3       O      0.845699     0.4563       0.4329      -0.587 
O3       O      0.3457       0.9563       0.4329      -0.587 
O3       O      0.3457       0.4563       0.9329      -0.587 
O3       O      0.845699     0.9563       0.9329      -0.587 
O3       O      0.8653       0.435        0.4144      -0.587 
O3       O      0.365301     0.935        0.4144      -0.587 
O3       O      0.365301     0.435        0.9144      -0.587 
O3       O      0.8653       0.935        0.9144      -0.587 
O2       O      0.348301     0.0885006    0.3735      -0.731 
O2       O      0.8483       0.5885       0.3735      -0.731 
O2       O      0.8483       0.0885006    0.8735      -0.731 
O2       O      0.348301     0.5885       0.8735      -0.731 
O3       O      0.3784       0.1513       0.3501      -0.587 
O3       O      0.8784       0.6513       0.3501      -0.587 
O3       O      0.8784       0.1513       0.8501      -0.587 
O3       O      0.3784       0.6513       0.8501      -0.587 
O3       O      0.3404       0.116101     0.365399    -0.587 
O3       O      0.840401     0.6161       0.365399    -0.587 
O3       O      0.840401     0.116101     0.8654      -0.587 
O3       O      0.3404       0.6161       0.8654      -0.587 
O2       O      0.3264       0.0176996    0.449101    -0.731 
O2       O      0.8264       0.5177       0.449101    -0.731 
O2       O      0.8264       0.0176996    0.9491      -0.731 
O2       O      0.3264       0.5177       0.9491      -0.731 
O2       O      0.3114       0.0518999    0.410901    -0.731 
O2       O      0.8114       0.551901     0.410901    -0.731 
O2       O      0.8114       0.0518999    0.9109      -0.731 
O2       O      0.3114       0.551901     0.9109      -0.731 
O2       O      0.3224       0.0266001    0.478       -0.731 
O2       O      0.822399     0.526599     0.478       -0.731 
O2       O      0.822399     0.0266001    0.978       -0.731 
O2       O      0.3224       0.526599     0.978       -0.731 
O2       O      0.7223       0.4879       0.4658      -0.731 
O2       O      0.222299     0.987899     0.4658      -0.731 
O2       O      0.222299     0.4879       0.9658      -0.731 
O2       O      0.7223       0.987899     0.9658      -0.731 
O2       O      0.2962       0.0697998    0.4753      -0.731 
O2       O      0.7962       0.5698       0.4753      -0.731 
O2       O      0.7962       0.0697998    0.9753      -0.731 
O2       O      0.2962       0.5698       0.9753      -0.731 
O3       O      0.284701     0.0595001    0.4239      -0.587 
O3       O      0.7847       0.559499     0.4239      -0.587 
O3       O      0.7847       0.0595001    0.9239      -0.587 
O3       O      0.284701     0.559499     0.9239      -0.587 
O3       O      0.248699     0.196701     0.4084      -0.587 
O3       O      0.7487       0.6967       0.4084      -0.587 
O3       O      0.7487       0.196701     0.908399    -0.587 
O3       O      0.248699     0.6967       0.908399    -0.587 
O3       O      0.4198       0.179701     0.277399    -0.587 
O3       O      0.919801     0.6797       0.277399    -0.587 
O3       O      0.919801     0.179701     0.7774      -0.587 
O3       O      0.4198       0.6797       0.7774      -0.587 
O2       O      0.2599       0.1866       0.381201    -0.731 
O2       O      0.759899     0.686601     0.381201    -0.731 
O2       O      0.759899     0.1866       0.8812      -0.731 
O2       O      0.2599       0.686601     0.8812      -0.731 
O2       O      0.390701     0.1708       0.2882      -0.731 
O2       O      0.8907       0.670799     0.2882      -0.731 
O2       O      0.8907       0.1708       0.7882      -0.731 
O2       O      0.390701     0.670799     0.7882      -0.731 
O2       O      0.275        0.1366       0.3816      -0.731 
O2       O      0.775        0.6366       0.3816      -0.731 
O2       O      0.775        0.1366       0.8816      -0.731 
O2       O      0.275        0.6366       0.8816      -0.731 
O2       O      0.2568       0.1184       0.3985      -0.731 
O2       O      0.7568       0.6184       0.3985      -0.731 
O2       O      0.7568       0.1184       0.8985      -0.731 
O2       O      0.2568       0.6184       0.8985      -0.731 
C3       C      0.4011       0.1683       0.325001     0.11  
C3       C      0.9011       0.6683       0.325001     0.11  
C3       C      0.9011       0.1683       0.825        0.11  
C3       C      0.4011       0.6683       0.825        0.11  
C2       C      0.4144       0.1791       0.3116      -0.274 
C2       C      0.9144       0.679101     0.3116      -0.274 
C2       C      0.9144       0.1791       0.8116      -0.274 
C2       C      0.4144       0.679101     0.8116      -0.274 
C1       C      0.407701     0.1779       0.2915       0.848 
C1       C      0.9077       0.6779       0.2915       0.848 
C1       C      0.9077       0.1779       0.791501     0.848 
C1       C      0.407701     0.6779       0.791501     0.848 
C3       C      0.84         0.4839       0.4592       0.11  
C3       C      0.339999     0.9839       0.4592       0.11  
C3       C      0.339999     0.4839       0.959199     0.11  
C3       C      0.84         0.9839       0.959199     0.11  
C2       C      0.8366       0.4974       0.472499    -0.274 
C2       C      0.336601     0.997399     0.472499    -0.274 
C2       C      0.336601     0.4974       0.9725      -0.274 
C2       C      0.8366       0.997399     0.9725      -0.274 
C1       C      0.3276       0.0136999    0.466199     0.848 
C1       C      0.827601     0.513701     0.466199     0.848 
C1       C      0.827601     0.0136999    0.9662       0.848 
C1       C      0.3276       0.513701     0.9662       0.848 
C2       C      0.2969       0.0774       0.398101    -0.274 
C2       C      0.796901     0.577401     0.398101    -0.274 
C2       C      0.796901     0.0774       0.8981      -0.274 
C2       C      0.2969       0.577401     0.8981      -0.274 
C3       C      0.2811       0.0885006    0.394901     0.11  
C3       C      0.781099     0.5885       0.394901     0.11  
C3       C      0.781099     0.0885006    0.8949       0.11  
C3       C      0.2811       0.5885       0.8949       0.11  
C2       C      0.2844       0.106599     0.3861      -0.274 
C2       C      0.7844       0.6066       0.3861      -0.274 
C2       C      0.7844       0.106599     0.886099    -0.274 
C2       C      0.2844       0.6066       0.886099    -0.274 
C3       C      0.302899     0.1116       0.3798       0.11  
C3       C      0.8029       0.6116       0.3798       0.11  
C3       C      0.8029       0.1116       0.8798       0.11  
C3       C      0.302899     0.6116       0.8798       0.11  
C2       C      0.317501     0.0978003    0.380101    -0.274 
C2       C      0.8175       0.5978       0.380101    -0.274 
C2       C      0.8175       0.0978003    0.8801      -0.274 
C2       C      0.317501     0.5978       0.8801      -0.274 
C3       C      0.3127       0.0797002    0.3862       0.11  
C3       C      0.812701     0.5797       0.3862       0.11  
C3       C      0.812701     0.0797002    0.8862       0.11  
C3       C      0.3127       0.5797       0.8862       0.11  
C1       C      0.3363       0.101299     0.373        0.848 
C1       C      0.836299     0.6013       0.373        0.848 
C1       C      0.836299     0.101299     0.873        0.848 
C1       C      0.3363       0.6013       0.873        0.848 
C1       C      0.2717       0.121499     0.3892       0.848 
C1       C      0.7717       0.6215       0.3892       0.848 
C1       C      0.7717       0.121499     0.889201     0.848 
C1       C      0.2717       0.6215       0.889201     0.848 
C1       C      0.2976       0.0627002    0.4114       0.848 
C1       C      0.7976       0.562699     0.4114       0.848 
C1       C      0.7976       0.0627002    0.911401     0.848 
C1       C      0.2976       0.562699     0.911401     0.848 
C2       C      0.2653       0.128801     0.460899    -0.274 
C2       C      0.7653       0.6288       0.460899    -0.274 
C2       C      0.7653       0.128801     0.9609      -0.274 
C2       C      0.2653       0.6288       0.9609      -0.274 
C3       C      0.2676       0.106599     0.4593       0.11  
C3       C      0.7676       0.6066       0.4593       0.11  
C3       C      0.7676       0.106599     0.959299     0.11  
C3       C      0.2676       0.6066       0.959299     0.11  
C1       C      0.2495       0.1981       0.389601     0.848 
C1       C      0.7495       0.6981       0.389601     0.848 
C1       C      0.7495       0.1981       0.8896       0.848 
C1       C      0.2495       0.6981       0.8896       0.848 
H1       H      0.367892     0.0680084    0.429433     0.1   
H1       H      0.867892     0.568009     0.429433     0.1   
H1       H      0.867892     0.0680084    0.929434     0.1   
H1       H      0.367892     0.568009     0.929434     0.1   
H1       H      0.350955     0.0833241    0.483061     0.1   
H1       H      0.850954     0.583325     0.483061     0.1   
H1       H      0.850954     0.0833241    0.98306      0.1   
H1       H      0.350955     0.583325     0.98306      0.1   
H1       H      0.427803     0.167769     0.363286     0.1   
H1       H      0.927804     0.667768     0.363286     0.1   
H1       H      0.927804     0.167769     0.863286     0.1   
H1       H      0.427803     0.667768     0.863286     0.1   
H1       H      0.439624     0.195188     0.310011     0.1   
H1       H      0.939623     0.695187     0.310011     0.1   
H1       H      0.939623     0.195188     0.810011     0.1   
H1       H      0.439624     0.695187     0.810011     0.1   
H1       H      0.44422      0.126112     0.37526      0.1   
H1       H      0.94422      0.626112     0.37526      0.1   
H1       H      0.94422      0.126112     0.875261     0.1   
H1       H      0.44422      0.626112     0.875261     0.1   
H1       H      0.84073      0.487827     0.444082     0.1   
H1       H      0.340729     0.987827     0.444082     0.1   
H1       H      0.340729     0.487827     0.944083     0.1   
H1       H      0.84073      0.987827     0.944083     0.1   
H1       H      0.260072     0.099161     0.449147     0.1   
H1       H      0.760071     0.59916      0.449147     0.1   
H1       H      0.760071     0.099161     0.949148     0.1   
H1       H      0.260072     0.59916      0.949148     0.1   
Cr2      Cr     0.9452       0.2034       0.4774       1.62  
Cr2      Cr     0.4452       0.7034       0.4774       1.62  
Cr2      Cr     0.4452       0.2034       0.9774       1.62  
Cr2      Cr     0.9452       0.7034       0.9774       1.62  
Cr1      Cr     0.9864       0.0899998    0.380299     1.859 
Cr1      Cr     0.4864       0.590001     0.380299     1.859 
Cr1      Cr     0.4864       0.0899998    0.8803       1.859 
Cr1      Cr     0.9864       0.590001     0.8803       1.859 
O2       O      0.9043       0.2937       0.4329      -0.731 
O2       O      0.4043       0.793701     0.4329      -0.731 
O2       O      0.4043       0.2937       0.9329      -0.731 
O2       O      0.9043       0.793701     0.9329      -0.731 
O2       O      0.8847       0.315        0.4144      -0.731 
O2       O      0.3847       0.814999     0.4144      -0.731 
O2       O      0.3847       0.315        0.9144      -0.731 
O2       O      0.8847       0.814999     0.9144      -0.731 
O2       O      0.9017       0.1615       0.3735      -0.731 
O2       O      0.4017       0.6615       0.3735      -0.731 
O2       O      0.4017       0.1615       0.8735      -0.731 
O2       O      0.9017       0.6615       0.8735      -0.731 
O3       O      0.8716       0.0987001    0.3501      -0.587 
O3       O      0.371601     0.598699     0.3501      -0.587 
O3       O      0.371601     0.0987001    0.8501      -0.587 
O3       O      0.8716       0.598699     0.8501      -0.587 
O3       O      0.9096       0.1339       0.365399    -0.587 
O3       O      0.4096       0.6339       0.365399    -0.587 
O3       O      0.4096       0.1339       0.8654      -0.587 
O3       O      0.9096       0.6339       0.8654      -0.587 
O2       O      0.9236       0.2323       0.449101    -0.731 
O2       O      0.423601     0.732299     0.449101    -0.731 
O2       O      0.423601     0.2323       0.9491      -0.731 
O2       O      0.9236       0.732299     0.9491      -0.731 
O2       O      0.9386       0.1981       0.410901    -0.731 
O2       O      0.438599     0.6981       0.410901    -0.731 
O2       O      0.438599     0.1981       0.9109      -0.731 
O2       O      0.9386       0.6981       0.9109      -0.731 
O3       O      0.9276       0.2234       0.478       -0.587 
O3       O      0.4276       0.7234       0.478       -0.587 
O3       O      0.4276       0.2234       0.978       -0.587 
O3       O      0.9276       0.7234       0.978       -0.587 
O2       O      0.0277002    0.2621       0.4658      -0.731 
O2       O      0.527699     0.7621       0.4658      -0.731 
O2       O      0.527699     0.2621       0.9658      -0.731 
O2       O      0.0277002    0.7621       0.9658      -0.731 
O3       O      0.953801     0.1802       0.4753      -0.587 
O3       O      0.4538       0.680201     0.4753      -0.587 
O3       O      0.4538       0.1802       0.9753      -0.587 
O3       O      0.953801     0.680201     0.9753      -0.587 
O2       O      0.9653       0.1905       0.4239      -0.731 
O2       O      0.4653       0.6905       0.4239      -0.731 
O2       O      0.4653       0.1905       0.9239      -0.731 
O2       O      0.9653       0.6905       0.9239      -0.731 
O3       O      0.00130031   0.0533004    0.4084      -0.587 
O3       O      0.5013       0.5533       0.4084      -0.587 
O3       O      0.5013       0.0533004    0.908399    -0.587 
O3       O      0.00130031   0.5533       0.908399    -0.587 
O3       O      0.8302       0.0703004    0.277399    -0.587 
O3       O      0.330201     0.5703       0.277399    -0.587 
O3       O      0.330201     0.0703004    0.7774      -0.587 
O3       O      0.8302       0.5703       0.7774      -0.587 
O2       O      0.9901       0.0633997    0.381201    -0.731 
O2       O      0.4901       0.5634       0.381201    -0.731 
O2       O      0.4901       0.0633997    0.8812      -0.731 
O2       O      0.9901       0.5634       0.8812      -0.731 
O2       O      0.8593       0.0791996    0.2882      -0.731 
O2       O      0.3593       0.5792       0.2882      -0.731 
O2       O      0.3593       0.0791996    0.7882      -0.731 
O2       O      0.8593       0.5792       0.7882      -0.731 
O2       O      0.975001     0.1134       0.3816      -0.731 
O2       O      0.475        0.613401     0.3816      -0.731 
O2       O      0.475        0.1134       0.8816      -0.731 
O2       O      0.975001     0.613401     0.8816      -0.731 
O2       O      0.993199     0.1316       0.3985      -0.731 
O2       O      0.4932       0.631599     0.3985      -0.731 
O2       O      0.4932       0.1316       0.8985      -0.731 
O2       O      0.993199     0.631599     0.8985      -0.731 
F1       F      0.4348       0.1983       0.00140044  -0.566 
F1       F      0.934801     0.698299     0.00140044  -0.566 
F1       F      0.934801     0.1983       0.5014      -0.566 
F1       F      0.4348       0.698299     0.5014      -0.566 
C3       C      0.848899     0.0817001    0.325001     0.11  
C3       C      0.3489       0.581699     0.325001     0.11  
C3       C      0.3489       0.0817001    0.825        0.11  
C3       C      0.848899     0.581699     0.825        0.11  
C2       C      0.8356       0.0708998    0.3116      -0.274 
C2       C      0.335601     0.5709       0.3116      -0.274 
C2       C      0.335601     0.0708998    0.8116      -0.274 
C2       C      0.8356       0.5709       0.8116      -0.274 
C1       C      0.8423       0.0721       0.2915       0.848 
C1       C      0.3423       0.572101     0.2915       0.848 
C1       C      0.3423       0.0721       0.791501     0.848 
C1       C      0.8423       0.572101     0.791501     0.848 
C3       C      0.91         0.2661       0.4592       0.11  
C3       C      0.409999     0.766101     0.4592       0.11  
C3       C      0.409999     0.2661       0.959199     0.11  
C3       C      0.91         0.766101     0.959199     0.11  
C2       C      0.9134       0.2526       0.472499    -0.274 
C2       C      0.4134       0.7526       0.472499    -0.274 
C2       C      0.4134       0.2526       0.9725      -0.274 
C2       C      0.9134       0.7526       0.9725      -0.274 
C1       C      0.9224       0.2363       0.466199     0.848 
C1       C      0.4224       0.7363       0.466199     0.848 
C1       C      0.4224       0.2363       0.9662       0.848 
C1       C      0.9224       0.7363       0.9662       0.848 
C2       C      0.9531       0.1726       0.398101    -0.274 
C2       C      0.4531       0.6726       0.398101    -0.274 
C2       C      0.4531       0.1726       0.8981      -0.274 
C2       C      0.9531       0.6726       0.8981      -0.274 
C3       C      0.9689       0.1615       0.394901     0.11  
C3       C      0.4689       0.6615       0.394901     0.11  
C3       C      0.4689       0.1615       0.8949       0.11  
C3       C      0.9689       0.6615       0.8949       0.11  
C2       C      0.965599     0.1434       0.3861      -0.274 
C2       C      0.4656       0.6434       0.3861      -0.274 
C2       C      0.4656       0.1434       0.886099    -0.274 
C2       C      0.965599     0.6434       0.886099    -0.274 
C3       C      0.9471       0.138399     0.3798       0.11  
C3       C      0.447099     0.6384       0.3798       0.11  
C3       C      0.447099     0.138399     0.8798       0.11  
C3       C      0.9471       0.6384       0.8798       0.11  
C2       C      0.9325       0.152199     0.380101    -0.274 
C2       C      0.4325       0.6522       0.380101    -0.274 
C2       C      0.4325       0.152199     0.8801      -0.274 
C2       C      0.9325       0.6522       0.8801      -0.274 
C3       C      0.9373       0.170299     0.3862       0.11  
C3       C      0.437301     0.6703       0.3862       0.11  
C3       C      0.437301     0.170299     0.8862       0.11  
C3       C      0.9373       0.6703       0.8862       0.11  
C1       C      0.913699     0.1487       0.373        0.848 
C1       C      0.4137       0.6487       0.373        0.848 
C1       C      0.4137       0.1487       0.873        0.848 
C1       C      0.913699     0.6487       0.873        0.848 
C1       C      0.978299     0.1285       0.3892       0.848 
C1       C      0.4783       0.6285       0.3892       0.848 
C1       C      0.4783       0.1285       0.889201     0.848 
C1       C      0.978299     0.6285       0.889201     0.848 
C1       C      0.9524       0.187299     0.4114       0.848 
C1       C      0.452399     0.6873       0.4114       0.848 
C1       C      0.452399     0.187299     0.911401     0.848 
C1       C      0.9524       0.6873       0.911401     0.848 
C2       C      0.984699     0.1212       0.460899    -0.274 
C2       C      0.4847       0.6212       0.460899    -0.274 
C2       C      0.4847       0.1212       0.9609      -0.274 
C2       C      0.984699     0.6212       0.9609      -0.274 
C3       C      0.982401     0.1434       0.4593       0.11  
C3       C      0.4824       0.6434       0.4593       0.11  
C3       C      0.4824       0.1434       0.959299     0.11  
C3       C      0.982401     0.6434       0.959299     0.11  
C1       C      0.000500647  0.0518999    0.389601     0.848 
C1       C      0.5005       0.551901     0.389601     0.848 
C1       C      0.5005       0.0518999    0.8896       0.848 
C1       C      0.000500647  0.551901     0.8896       0.848 
H1       H      0.882108     0.181991     0.429433     0.1   
H1       H      0.382107     0.681992     0.429433     0.1   
H1       H      0.382107     0.181991     0.929434     0.1   
H1       H      0.882108     0.681992     0.929434     0.1   
H1       H      0.899045     0.166676     0.483061     0.1   
H1       H      0.399046     0.666676     0.483061     0.1   
H1       H      0.399046     0.166676     0.98306      0.1   
H1       H      0.899045     0.666676     0.98306      0.1   
H1       H      0.938032     0.353823     0.354484     0.1   
H1       H      0.438032     0.853824     0.354484     0.1   
H1       H      0.438032     0.353823     0.854483     0.1   
H1       H      0.938032     0.853824     0.854483     0.1   
H1       H      0.822196     0.0822309    0.363286     0.1   
H1       H      0.322196     0.582232     0.363286     0.1   
H1       H      0.322196     0.0822309    0.863286     0.1   
H1       H      0.822196     0.582232     0.863286     0.1   
H1       H      0.810377     0.0548119    0.310011     0.1   
H1       H      0.310376     0.554813     0.310011     0.1   
H1       H      0.310376     0.0548119    0.810011     0.1   
H1       H      0.810377     0.554813     0.810011     0.1   
H1       H      0.805779     0.123887     0.37526      0.1   
H1       H      0.30578      0.623888     0.37526      0.1   
H1       H      0.30578      0.123887     0.875261     0.1   
H1       H      0.805779     0.623888     0.875261     0.1   
H1       H      0.90927      0.262173     0.444082     0.1   
H1       H      0.40927      0.762172     0.444082     0.1   
H1       H      0.40927      0.262173     0.944083     0.1   
H1       H      0.90927      0.762172     0.944083     0.1   
H1       H      0.989928     0.15084      0.449147     0.1   
H1       H      0.489929     0.650839     0.449147     0.1   
H1       H      0.489929     0.15084      0.949148     0.1   
H1       H      0.989928     0.650839     0.949148     0.1   
Cr1      Cr     0.8048       0.2034       0.2726       1.859 
Cr1      Cr     0.304801     0.7034       0.2726       1.859 
Cr1      Cr     0.304801     0.2034       0.772599     1.859 
Cr1      Cr     0.8048       0.7034       0.772599     1.859 
Cr1      Cr     0.7636       0.0899998    0.369699     1.859 
Cr1      Cr     0.263599     0.590001     0.369699     1.859 
Cr1      Cr     0.263599     0.0899998    0.8697       1.859 
Cr1      Cr     0.7636       0.590001     0.8697       1.859 
O2       O      0.845699     0.2937       0.3171      -0.731 
O2       O      0.3457       0.793701     0.3171      -0.731 
O2       O      0.3457       0.2937       0.817099    -0.731 
O2       O      0.845699     0.793701     0.817099    -0.731 
O2       O      0.8653       0.315        0.335601    -0.731 
O2       O      0.365301     0.814999     0.335601    -0.731 
O2       O      0.365301     0.315        0.8356      -0.731 
O2       O      0.8653       0.814999     0.8356      -0.731 
O2       O      0.8483       0.1615       0.3765      -0.731 
O2       O      0.348301     0.6615       0.3765      -0.731 
O2       O      0.348301     0.1615       0.876499    -0.731 
O2       O      0.8483       0.6615       0.876499    -0.731 
O2       O      0.8784       0.0987001    0.3999      -0.731 
O2       O      0.3784       0.598699     0.3999      -0.731 
O2       O      0.3784       0.0987001    0.899899    -0.731 
O2       O      0.8784       0.598699     0.899899    -0.731 
O2       O      0.840401     0.1339       0.3846      -0.731 
O2       O      0.3404       0.6339       0.3846      -0.731 
O2       O      0.3404       0.1339       0.8846      -0.731 
O2       O      0.840401     0.6339       0.8846      -0.731 
O3       O      0.8264       0.2323       0.3009      -0.587 
O3       O      0.3264       0.732299     0.3009      -0.587 
O3       O      0.3264       0.2323       0.8009      -0.587 
O3       O      0.8264       0.732299     0.8009      -0.587 
O3       O      0.8114       0.1981       0.3391      -0.587 
O3       O      0.3114       0.6981       0.3391      -0.587 
O3       O      0.3114       0.1981       0.8391      -0.587 
O3       O      0.8114       0.6981       0.8391      -0.587 
O2       O      0.822399     0.2234       0.272001    -0.731 
O2       O      0.3224       0.7234       0.272001    -0.731 
O2       O      0.3224       0.2234       0.772       -0.731 
O2       O      0.822399     0.7234       0.772       -0.731 
O2       O      0.7223       0.2621       0.2842      -0.731 
O2       O      0.222299     0.7621       0.2842      -0.731 
O2       O      0.222299     0.2621       0.784201    -0.731 
O2       O      0.7223       0.7621       0.784201    -0.731 
O2       O      0.7962       0.1802       0.2747      -0.731 
O2       O      0.2962       0.680201     0.2747      -0.731 
O2       O      0.2962       0.1802       0.774699    -0.731 
O2       O      0.7962       0.680201     0.774699    -0.731 
O2       O      0.7847       0.1905       0.326099    -0.731 
O2       O      0.284701     0.6905       0.326099    -0.731 
O2       O      0.284701     0.1905       0.8261      -0.731 
O2       O      0.7847       0.6905       0.8261      -0.731 
O2       O      0.7487       0.0533004    0.3416      -0.731 
O2       O      0.248699     0.5533       0.3416      -0.731 
O2       O      0.248699     0.0533004    0.841599    -0.731 
O2       O      0.7487       0.5533       0.841599    -0.731 
O2       O      0.919801     0.0703004    0.4726      -0.731 
O2       O      0.4198       0.5703       0.4726      -0.731 
O2       O      0.4198       0.0703004    0.9726      -0.731 
O2       O      0.919801     0.5703       0.9726      -0.731 
O2       O      0.759899     0.0633997    0.3688      -0.731 
O2       O      0.2599       0.5634       0.3688      -0.731 
O2       O      0.2599       0.0633997    0.8688      -0.731 
O2       O      0.759899     0.5634       0.8688      -0.731 
O3       O      0.8907       0.0791996    0.461801    -0.587 
O3       O      0.390701     0.5792       0.461801    -0.587 
O3       O      0.390701     0.0791996    0.9618      -0.587 
O3       O      0.8907       0.5792       0.9618      -0.587 
O2       O      0.775        0.1134       0.368401    -0.731 
O2       O      0.275        0.613401     0.368401    -0.731 
O2       O      0.275        0.1134       0.8684      -0.731 
O2       O      0.775        0.613401     0.8684      -0.731 
O3       O      0.7568       0.1316       0.351501    -0.587 
O3       O      0.2568       0.631599     0.351501    -0.587 
O3       O      0.2568       0.1316       0.8515      -0.587 
O3       O      0.7568       0.631599     0.8515      -0.587 
C3       C      0.9011       0.0817001    0.425        0.11  
C3       C      0.4011       0.581699     0.425        0.11  
C3       C      0.4011       0.0817001    0.925        0.11  
C3       C      0.9011       0.581699     0.925        0.11  
C2       C      0.9144       0.0708998    0.438401    -0.274 
C2       C      0.4144       0.5709       0.438401    -0.274 
C2       C      0.4144       0.0708998    0.9384      -0.274 
C2       C      0.9144       0.5709       0.9384      -0.274 
C1       C      0.9077       0.0721       0.458501     0.848 
C1       C      0.407701     0.572101     0.458501     0.848 
C1       C      0.407701     0.0721       0.9585       0.848 
C1       C      0.9077       0.572101     0.9585       0.848 
C3       C      0.84         0.2661       0.2908       0.11  
C3       C      0.339999     0.766101     0.2908       0.11  
C3       C      0.339999     0.2661       0.7908       0.11  
C3       C      0.84         0.766101     0.7908       0.11  
C2       C      0.8366       0.2526       0.2775      -0.274 
C2       C      0.336601     0.7526       0.2775      -0.274 
C2       C      0.336601     0.2526       0.7775      -0.274 
C2       C      0.8366       0.7526       0.7775      -0.274 
C1       C      0.827601     0.2363       0.283799     0.848 
C1       C      0.3276       0.7363       0.283799     0.848 
C1       C      0.3276       0.2363       0.7838       0.848 
C1       C      0.827601     0.7363       0.7838       0.848 
C2       C      0.796901     0.1726       0.3519      -0.274 
C2       C      0.2969       0.6726       0.3519      -0.274 
C2       C      0.2969       0.1726       0.8519      -0.274 
C2       C      0.796901     0.6726       0.8519      -0.274 
C3       C      0.781099     0.1615       0.3551       0.11  
C3       C      0.2811       0.6615       0.3551       0.11  
C3       C      0.2811       0.1615       0.8551       0.11  
C3       C      0.781099     0.6615       0.8551       0.11  
C2       C      0.7844       0.1434       0.3639      -0.274 
C2       C      0.2844       0.6434       0.3639      -0.274 
C2       C      0.2844       0.1434       0.8639      -0.274 
C2       C      0.7844       0.6434       0.8639      -0.274 
C3       C      0.8029       0.138399     0.3702       0.11  
C3       C      0.302899     0.6384       0.3702       0.11  
C3       C      0.302899     0.138399     0.870199     0.11  
C3       C      0.8029       0.6384       0.870199     0.11  
C2       C      0.8175       0.152199     0.3699      -0.274 
C2       C      0.317501     0.6522       0.3699      -0.274 
C2       C      0.317501     0.152199     0.8699      -0.274 
C2       C      0.8175       0.6522       0.8699      -0.274 
C3       C      0.812701     0.170299     0.3638       0.11  
C3       C      0.3127       0.6703       0.3638       0.11  
C3       C      0.3127       0.170299     0.863799     0.11  
C3       C      0.812701     0.6703       0.863799     0.11  
C1       C      0.836299     0.1487       0.376999     0.848 
C1       C      0.3363       0.6487       0.376999     0.848 
C1       C      0.3363       0.1487       0.877        0.848 
C1       C      0.836299     0.6487       0.877        0.848 
C1       C      0.7717       0.1285       0.3608       0.848 
C1       C      0.2717       0.6285       0.3608       0.848 
C1       C      0.2717       0.1285       0.8608       0.848 
C1       C      0.7717       0.6285       0.8608       0.848 
C1       C      0.7976       0.187299     0.3386       0.848 
C1       C      0.2976       0.6873       0.3386       0.848 
C1       C      0.2976       0.187299     0.8386       0.848 
C1       C      0.7976       0.6873       0.8386       0.848 
C2       C      0.7653       0.1212       0.289099    -0.274 
C2       C      0.2653       0.6212       0.289099    -0.274 
C2       C      0.2653       0.1212       0.7891      -0.274 
C2       C      0.7653       0.6212       0.7891      -0.274 
C3       C      0.7676       0.1434       0.2907       0.11  
C3       C      0.2676       0.6434       0.2907       0.11  
C3       C      0.2676       0.1434       0.790699     0.11  
C3       C      0.7676       0.6434       0.790699     0.11  
C1       C      0.7495       0.0518999    0.3604       0.848 
C1       C      0.2495       0.551901     0.3604       0.848 
C1       C      0.2495       0.0518999    0.8604       0.848 
C1       C      0.7495       0.551901     0.8604       0.848 
H1       H      0.867892     0.181991     0.320568     0.1   
H1       H      0.367892     0.681992     0.320568     0.1   
H1       H      0.367892     0.181991     0.820567     0.1   
H1       H      0.867892     0.681992     0.820567     0.1   
H1       H      0.850954     0.166676     0.266939     0.1   
H1       H      0.350955     0.666676     0.266939     0.1   
H1       H      0.350955     0.166676     0.766939     0.1   
H1       H      0.850954     0.666676     0.766939     0.1   
H1       H      0.811968     0.353823     0.395516     0.1   
H1       H      0.311969     0.853824     0.395516     0.1   
H1       H      0.311969     0.353823     0.895516     0.1   
H1       H      0.811968     0.853824     0.895516     0.1   
H1       H      0.927804     0.0822309    0.386713     0.1   
H1       H      0.427803     0.582232     0.386713     0.1   
H1       H      0.427803     0.0822309    0.886714     0.1   
H1       H      0.927804     0.582232     0.886714     0.1   
H1       H      0.939623     0.0548119    0.439989     0.1   
H1       H      0.439624     0.554813     0.439989     0.1   
H1       H      0.439624     0.0548119    0.93999      0.1   
H1       H      0.939623     0.554813     0.93999      0.1   
H1       H      0.94422      0.123887     0.374739     0.1   
H1       H      0.44422      0.623888     0.374739     0.1   
H1       H      0.44422      0.123887     0.87474      0.1   
H1       H      0.94422      0.623888     0.87474      0.1   
H1       H      0.84073      0.262173     0.305918     0.1   
H1       H      0.340729     0.762172     0.305918     0.1   
H1       H      0.340729     0.262173     0.805918     0.1   
H1       H      0.84073      0.762172     0.805918     0.1   
H1       H      0.760071     0.15084      0.300853     0.1   
H1       H      0.260072     0.650839     0.300853     0.1   
H1       H      0.260072     0.15084      0.800852     0.1   
H1       H      0.760071     0.650839     0.800852     0.1   
Cr2      Cr     0.695199     0.0226004    0.453399     1.62  
Cr2      Cr     0.1952       0.5226       0.453399     1.62  
Cr2      Cr     0.1952       0.0226004    0.9534       1.62  
Cr2      Cr     0.695199     0.5226       0.9534       1.62  
Cr2      Cr     0.736401     0.1197       0.339999     1.62  
Cr2      Cr     0.2364       0.619701     0.339999     1.62  
Cr2      Cr     0.2364       0.1197       0.84         1.62  
Cr2      Cr     0.736401     0.619701     0.84         1.62  
O2       O      0.154299     0.0671004    0.0437003   -0.731 
O2       O      0.6543       0.5671       0.0437003   -0.731 
O2       O      0.6543       0.0671004    0.5437      -0.731 
O2       O      0.154299     0.5671       0.5437      -0.731 
O2       O      0.1347       0.0855996    0.0650004   -0.731 
O2       O      0.634699     0.5856       0.0650004   -0.731 
O2       O      0.634699     0.0855996    0.565       -0.731 
O2       O      0.1347       0.5856       0.565       -0.731 
O3       O      0.651699     0.1265       0.4115      -0.587 
O3       O      0.1517       0.6265       0.4115      -0.587 
O3       O      0.1517       0.1265       0.911499    -0.587 
O3       O      0.651699     0.6265       0.911499    -0.587 
O2       O      0.6216       0.1499       0.3487      -0.731 
O2       O      0.1216       0.6499       0.3487      -0.731 
O2       O      0.1216       0.1499       0.8487      -0.731 
O2       O      0.6216       0.6499       0.8487      -0.731 
O2       O      0.6596       0.1346       0.3839      -0.731 
O2       O      0.159599     0.634601     0.3839      -0.731 
O2       O      0.159599     0.1346       0.883899    -0.731 
O2       O      0.6596       0.634601     0.883899    -0.731 
O2       O      0.6736       0.0509       0.4823      -0.731 
O2       O      0.1736       0.550899     0.4823      -0.731 
O2       O      0.1736       0.0509       0.9823      -0.731 
O2       O      0.6736       0.550899     0.9823      -0.731 
O2       O      0.6886       0.0891       0.448099    -0.731 
O2       O      0.1886       0.589099     0.448099    -0.731 
O2       O      0.1886       0.0891       0.9481      -0.731 
O2       O      0.6886       0.589099     0.9481      -0.731 
O3       O      0.6776       0.0219997    0.473401    -0.587 
O3       O      0.177601     0.522        0.473401    -0.587 
O3       O      0.177601     0.0219997    0.9734      -0.587 
O3       O      0.6776       0.522        0.9734      -0.587 
O2       O      0.2777       0.0342003    0.0121006   -0.731 
O2       O      0.777701     0.5342       0.0121006   -0.731 
O2       O      0.777701     0.0342003    0.5121      -0.731 
O2       O      0.2777       0.5342       0.5121      -0.731 
O3       O      0.7038       0.0247004    0.4302      -0.587 
O3       O      0.2038       0.5247       0.4302      -0.587 
O3       O      0.2038       0.0247004    0.9302      -0.587 
O3       O      0.7038       0.5247       0.9302      -0.587 
O2       O      0.715299     0.0760997    0.440501    -0.731 
O2       O      0.2153       0.5761       0.440501    -0.731 
O2       O      0.2153       0.0760997    0.9405      -0.731 
O2       O      0.715299     0.5761       0.9405      -0.731 
O2       O      0.751301     0.0916005    0.3033      -0.731 
O2       O      0.2513       0.5916       0.3033      -0.731 
O2       O      0.2513       0.0916005    0.803301    -0.731 
O2       O      0.751301     0.5916       0.803301    -0.731 
O3       O      0.5802       0.2226       0.3203      -0.587 
O3       O      0.0801995    0.722601     0.3203      -0.587 
O3       O      0.0801995    0.2226       0.820299    -0.587 
O3       O      0.5802       0.722601     0.820299    -0.587 
O3       O      0.7401       0.1188       0.313399    -0.587 
O3       O      0.240101     0.618799     0.313399    -0.587 
O3       O      0.240101     0.1188       0.8134      -0.587 
O3       O      0.7401       0.618799     0.8134      -0.587 
O2       O      0.609299     0.2118       0.329201    -0.731 
O2       O      0.1093       0.7118       0.329201    -0.731 
O2       O      0.1093       0.2118       0.8292      -0.731 
O2       O      0.609299     0.7118       0.8292      -0.731 
O3       O      0.725        0.1184       0.3634      -0.587 
O3       O      0.225        0.6184       0.3634      -0.587 
O3       O      0.225        0.1184       0.8634      -0.587 
O3       O      0.725        0.6184       0.8634      -0.587 
O2       O      0.7432       0.1015       0.3816      -0.731 
O2       O      0.2432       0.6015       0.3816      -0.731 
O2       O      0.2432       0.1015       0.8816      -0.731 
O2       O      0.7432       0.6015       0.8816      -0.731 
F1       F      0.1848       0.4986       0.4483      -0.566 
F1       F      0.6848       0.9986       0.4483      -0.566 
F1       F      0.6848       0.4986       0.9483      -0.566 
F1       F      0.1848       0.9986       0.9483      -0.566 
F1       F      0.7257       0.142501     0.334501    -0.566 
F1       F      0.2257       0.6425       0.334501    -0.566 
F1       F      0.2257       0.142501     0.8345      -0.566 
F1       F      0.7257       0.6425       0.8345      -0.566 
C3       C      0.5989       0.175        0.3317       0.11  
C3       C      0.0989004    0.674999     0.3317       0.11  
C3       C      0.0989004    0.175        0.8317       0.11  
C3       C      0.5989       0.674999     0.8317       0.11  
C2       C      0.5856       0.1884       0.320899    -0.274 
C2       C      0.0855996    0.6884       0.320899    -0.274 
C2       C      0.0855996    0.1884       0.8209      -0.274 
C2       C      0.5856       0.6884       0.8209      -0.274 
C1       C      0.592299     0.208499     0.3221       0.848 
C1       C      0.0923001    0.7085       0.3221       0.848 
C1       C      0.0923001    0.208499     0.8221       0.848 
C1       C      0.592299     0.7085       0.8221       0.848 
C3       C      0.16         0.0408007    0.0161003    0.11  
C3       C      0.660001     0.5408       0.0161003    0.11  
C3       C      0.660001     0.0408007    0.5161       0.11  
C3       C      0.16         0.5408       0.5161       0.11  
C2       C      0.1634       0.0274999    0.00260062  -0.274 
C2       C      0.663399     0.527501     0.00260062  -0.274 
C2       C      0.663399     0.0274999    0.5026      -0.274 
C2       C      0.1634       0.527501     0.5026      -0.274 
C1       C      0.6724       0.0337998    0.486299     0.848 
C1       C      0.172399     0.533801     0.486299     0.848 
C1       C      0.172399     0.0337998    0.9863       0.848 
C1       C      0.6724       0.533801     0.9863       0.848 
C2       C      0.7031       0.1019       0.422599    -0.274 
C2       C      0.203099     0.601899     0.422599    -0.274 
C2       C      0.203099     0.1019       0.9226      -0.274 
C2       C      0.7031       0.601899     0.9226      -0.274 
C3       C      0.7189       0.1051       0.4115       0.11  
C3       C      0.218901     0.605099     0.4115       0.11  
C3       C      0.218901     0.1051       0.911499     0.11  
C3       C      0.7189       0.605099     0.911499     0.11  
C2       C      0.7156       0.113901     0.3934      -0.274 
C2       C      0.2156       0.6139       0.3934      -0.274 
C2       C      0.2156       0.113901     0.893401    -0.274 
C2       C      0.7156       0.6139       0.893401    -0.274 
C3       C      0.697101     0.1202       0.3884       0.11  
C3       C      0.1971       0.6202       0.3884       0.11  
C3       C      0.1971       0.1202       0.8884       0.11  
C3       C      0.697101     0.6202       0.8884       0.11  
C2       C      0.682499     0.1199       0.4022      -0.274 
C2       C      0.1825       0.619899     0.4022      -0.274 
C2       C      0.1825       0.1199       0.9022      -0.274 
C2       C      0.682499     0.619899     0.9022      -0.274 
C3       C      0.6873       0.1138       0.4203       0.11  
C3       C      0.187299     0.6138       0.4203       0.11  
C3       C      0.187299     0.1138       0.9203       0.11  
C3       C      0.6873       0.6138       0.9203       0.11  
C1       C      0.6637       0.127        0.3987       0.848 
C1       C      0.163701     0.627        0.3987       0.848 
C1       C      0.163701     0.127        0.898701     0.848 
C1       C      0.6637       0.627        0.898701     0.848 
C1       C      0.7283       0.110801     0.3785       0.848 
C1       C      0.2283       0.6108       0.3785       0.848 
C1       C      0.2283       0.110801     0.878501     0.848 
C1       C      0.7283       0.6108       0.878501     0.848 
C1       C      0.7024       0.0885994    0.437301     0.848 
C1       C      0.2024       0.5886       0.437301     0.848 
C1       C      0.2024       0.0885994    0.9373       0.848 
C1       C      0.7024       0.5886       0.9373       0.848 
C2       C      0.7347       0.0390998    0.3712      -0.274 
C2       C      0.2347       0.539101     0.3712      -0.274 
C2       C      0.2347       0.0390998    0.871199    -0.274 
C2       C      0.7347       0.539101     0.871199    -0.274 
C3       C      0.7324       0.0407005    0.3934       0.11  
C3       C      0.2324       0.5407       0.3934       0.11  
C3       C      0.2324       0.0407005    0.893401     0.11  
C3       C      0.7324       0.5407       0.893401     0.11  
C1       C      0.7505       0.1104       0.3019       0.848 
C1       C      0.2505       0.610399     0.3019       0.848 
C1       C      0.2505       0.1104       0.8019       0.848 
C1       C      0.7505       0.610399     0.8019       0.848 
H1       H      0.632108     0.0705665    0.431991     0.1   
H1       H      0.132108     0.570567     0.431991     0.1   
H1       H      0.132108     0.0705665    0.931992     0.1   
H1       H      0.632108     0.570567     0.931992     0.1   
H1       H      0.649045     0.0169397    0.416675     0.1   
H1       H      0.149046     0.516939     0.416675     0.1   
H1       H      0.149046     0.0169397    0.916676     0.1   
H1       H      0.649045     0.516939     0.916676     0.1   
H1       H      0.572197     0.136714     0.332232     0.1   
H1       H      0.072196     0.636714     0.332232     0.1   
H1       H      0.072196     0.136714     0.832231     0.1   
H1       H      0.572197     0.636714     0.832231     0.1   
H1       H      0.560376     0.189989     0.304813     0.1   
H1       H      0.0603766    0.689989     0.304813     0.1   
H1       H      0.0603766    0.189989     0.804812     0.1   
H1       H      0.560376     0.689989     0.804812     0.1   
H1       H      0.55578      0.124739     0.373888     0.1   
H1       H      0.0557803    0.62474      0.373888     0.1   
H1       H      0.0557803    0.124739     0.873888     0.1   
H1       H      0.55578      0.62474      0.873888     0.1   
H1       H      0.15927      0.0559174    0.0121733    0.1   
H1       H      0.659271     0.555918     0.0121733    0.1   
H1       H      0.659271     0.0559174    0.512173     0.1   
H1       H      0.15927      0.555918     0.512173     0.1   
H1       H      0.739928     0.050852     0.40084      0.1   
H1       H      0.239929     0.550853     0.40084      0.1   
H1       H      0.239929     0.050852     0.900839     0.1   
H1       H      0.739928     0.550853     0.900839     0.1   
Cr1      Cr     0.5548       0.227401     0.453399     1.859 
Cr1      Cr     0.0547996    0.7274       0.453399     1.859 
Cr1      Cr     0.0547996    0.227401     0.9534       1.859 
Cr1      Cr     0.5548       0.7274       0.9534       1.859 
Cr1      Cr     0.5136       0.1303       0.339999     1.859 
Cr1      Cr     0.0135998    0.630301     0.339999     1.859 
Cr1      Cr     0.0135998    0.1303       0.84         1.859 
Cr1      Cr     0.5136       0.630301     0.84         1.859 
O2       O      0.0957003    0.182901     0.0437003   -0.731 
O2       O      0.5957       0.6829       0.0437003   -0.731 
O2       O      0.5957       0.182901     0.5437      -0.731 
O2       O      0.0957003    0.6829       0.5437      -0.731 
O2       O      0.1153       0.1644       0.0650004   -0.731 
O2       O      0.6153       0.664399     0.0650004   -0.731 
O2       O      0.6153       0.1644       0.565       -0.731 
O2       O      0.1153       0.664399     0.565       -0.731 
O3       O      0.5983       0.123501     0.4115      -0.587 
O3       O      0.0982996    0.6235       0.4115      -0.587 
O3       O      0.0982996    0.123501     0.911499    -0.587 
O3       O      0.5983       0.6235       0.911499    -0.587 
O3       O      0.628399     0.100101     0.3487      -0.587 
O3       O      0.1284       0.6001       0.3487      -0.587 
O3       O      0.1284       0.100101     0.8487      -0.587 
O3       O      0.628399     0.6001       0.8487      -0.587 
O3       O      0.5904       0.1154       0.3839      -0.587 
O3       O      0.0904003    0.6154       0.3839      -0.587 
O3       O      0.0904003    0.1154       0.883899    -0.587 
O3       O      0.5904       0.6154       0.883899    -0.587 
O3       O      0.576399     0.1991       0.4823      -0.587 
O3       O      0.0764001    0.6991       0.4823      -0.587 
O3       O      0.0764001    0.1991       0.9823      -0.587 
O3       O      0.576399     0.6991       0.9823      -0.587 
O3       O      0.561401     0.1609       0.448099    -0.587 
O3       O      0.0613999    0.6609       0.448099    -0.587 
O3       O      0.0613999    0.1609       0.9481      -0.587 
O3       O      0.561401     0.6609       0.9481      -0.587 
O2       O      0.5724       0.228        0.473401    -0.731 
O2       O      0.0724004    0.728001     0.473401    -0.731 
O2       O      0.0724004    0.228        0.9734      -0.731 
O2       O      0.5724       0.728001     0.9734      -0.731 
O2       O      0.9723       0.215799     0.0121006   -0.731 
O2       O      0.472301     0.7158       0.0121006   -0.731 
O2       O      0.472301     0.215799     0.5121      -0.731 
O2       O      0.9723       0.7158       0.5121      -0.731 
O2       O      0.5462       0.225301     0.4302      -0.731 
O2       O      0.0461994    0.7253       0.4302      -0.731 
O2       O      0.0461994    0.225301     0.9302      -0.731 
O2       O      0.5462       0.7253       0.9302      -0.731 
O2       O      0.5347       0.1739       0.440501    -0.731 
O2       O      0.0346996    0.673901     0.440501    -0.731 
O2       O      0.0346996    0.1739       0.9405      -0.731 
O2       O      0.5347       0.673901     0.9405      -0.731 
O2       O      0.4987       0.158401     0.3033      -0.731 
O2       O      0.9987       0.6584       0.3033      -0.731 
O2       O      0.9987       0.158401     0.803301    -0.731 
O2       O      0.4987       0.6584       0.803301    -0.731 
O3       O      0.669799     0.0273998    0.3203      -0.587 
O3       O      0.1698       0.5274       0.3203      -0.587 
O3       O      0.1698       0.0273998    0.820299    -0.587 
O3       O      0.669799     0.5274       0.820299    -0.587 
O2       O      0.5099       0.1312       0.313399    -0.731 
O2       O      0.00990046   0.6312       0.313399    -0.731 
O2       O      0.00990046   0.1312       0.8134      -0.731 
O2       O      0.5099       0.6312       0.8134      -0.731 
O2       O      0.6407       0.0382       0.329201    -0.731 
O2       O      0.1407       0.538199     0.329201    -0.731 
O2       O      0.1407       0.0382       0.8292      -0.731 
O2       O      0.6407       0.538199     0.8292      -0.731 
O2       O      0.525        0.1316       0.3634      -0.731 
O2       O      0.0249994    0.631599     0.3634      -0.731 
O2       O      0.0249994    0.1316       0.8634      -0.731 
O2       O      0.525        0.631599     0.8634      -0.731 
O3       O      0.5068       0.1485       0.3816      -0.587 
O3       O      0.00680057   0.648499     0.3816      -0.587 
O3       O      0.00680057   0.1485       0.8816      -0.587 
O3       O      0.5068       0.648499     0.8816      -0.587 
C3       C      0.6511       0.0749996    0.3317       0.11  
C3       C      0.151101     0.575        0.3317       0.11  
C3       C      0.151101     0.0749996    0.8317       0.11  
C3       C      0.6511       0.575        0.8317       0.11  
C2       C      0.664399     0.0616001    0.320899    -0.274 
C2       C      0.1644       0.561599     0.320899    -0.274 
C2       C      0.1644       0.0616001    0.8209      -0.274 
C2       C      0.664399     0.561599     0.8209      -0.274 
C1       C      0.6577       0.0415002    0.3221       0.848 
C1       C      0.1577       0.541499     0.3221       0.848 
C1       C      0.1577       0.0415002    0.8221       0.848 
C1       C      0.6577       0.541499     0.8221       0.848 
C3       C      0.0899998    0.2092       0.0161003    0.11  
C3       C      0.590001     0.7092       0.0161003    0.11  
C3       C      0.590001     0.2092       0.5161       0.11  
C3       C      0.0899998    0.7092       0.5161       0.11  
C2       C      0.0865995    0.2225       0.00260062  -0.274 
C2       C      0.5866       0.7225       0.00260062  -0.274 
C2       C      0.5866       0.2225       0.5026      -0.274 
C2       C      0.0865995    0.7225       0.5026      -0.274 
C1       C      0.5776       0.2162       0.486299     0.848 
C1       C      0.0776002    0.716201     0.486299     0.848 
C1       C      0.0776002    0.2162       0.9863       0.848 
C1       C      0.5776       0.716201     0.9863       0.848 
C2       C      0.5469       0.1481       0.422599    -0.274 
C2       C      0.0469003    0.6481       0.422599    -0.274 
C2       C      0.0469003    0.1481       0.9226      -0.274 
C2       C      0.5469       0.6481       0.9226      -0.274 
C3       C      0.5311       0.1449       0.4115       0.11  
C3       C      0.0311004    0.6449       0.4115       0.11  
C3       C      0.0311004    0.1449       0.911499     0.11  
C3       C      0.5311       0.6449       0.911499     0.11  
C2       C      0.5344       0.1361       0.3934      -0.274 
C2       C      0.0344006    0.6361       0.3934      -0.274 
C2       C      0.0344006    0.1361       0.893401    -0.274 
C2       C      0.5344       0.6361       0.893401    -0.274 
C3       C      0.552901     0.129801     0.3884       0.11  
C3       C      0.0528998    0.6298       0.3884       0.11  
C3       C      0.0528998    0.129801     0.8884       0.11  
C3       C      0.552901     0.6298       0.8884       0.11  
C2       C      0.5675       0.1301       0.4022      -0.274 
C2       C      0.0674995    0.6301       0.4022      -0.274 
C2       C      0.0674995    0.1301       0.9022      -0.274 
C2       C      0.5675       0.6301       0.9022      -0.274 
C3       C      0.562699     0.136201     0.4203       0.11  
C3       C      0.0627002    0.6362       0.4203       0.11  
C3       C      0.0627002    0.136201     0.9203       0.11  
C3       C      0.562699     0.6362       0.9203       0.11  
C1       C      0.5863       0.123        0.3987       0.848 
C1       C      0.0863005    0.622999     0.3987       0.848 
C1       C      0.0863005    0.123        0.898701     0.848 
C1       C      0.5863       0.622999     0.898701     0.848 
C1       C      0.5217       0.1392       0.3785       0.848 
C1       C      0.0217006    0.6392       0.3785       0.848 
C1       C      0.0217006    0.1392       0.878501     0.848 
C1       C      0.5217       0.6392       0.878501     0.848 
C1       C      0.547601     0.1614       0.437301     0.848 
C1       C      0.0475998    0.6614       0.437301     0.848 
C1       C      0.0475998    0.1614       0.9373       0.848 
C1       C      0.547601     0.6614       0.9373       0.848 
C2       C      0.5153       0.2109       0.3712      -0.274 
C2       C      0.0153006    0.710901     0.3712      -0.274 
C2       C      0.0153006    0.2109       0.871199    -0.274 
C2       C      0.5153       0.710901     0.871199    -0.274 
C3       C      0.5176       0.209301     0.3934       0.11  
C3       C      0.0175994    0.7093       0.3934       0.11  
C3       C      0.0175994    0.209301     0.893401     0.11  
C3       C      0.5176       0.7093       0.893401     0.11  
C1       C      0.4995       0.1396       0.3019       0.848 
C1       C      0.999499     0.6396       0.3019       0.848 
C1       C      0.999499     0.1396       0.8019       0.848 
C1       C      0.4995       0.6396       0.8019       0.848 
H1       H      0.617893     0.179433     0.431991     0.1   
H1       H      0.117892     0.679432     0.431991     0.1   
H1       H      0.117892     0.179433     0.931992     0.1   
H1       H      0.617893     0.679432     0.931992     0.1   
H1       H      0.600954     0.233061     0.416675     0.1   
H1       H      0.100955     0.733061     0.416675     0.1   
H1       H      0.100955     0.233061     0.916676     0.1   
H1       H      0.600954     0.733061     0.916676     0.1   
H1       H      0.0619677    0.104484     0.103823     0.1   
H1       H      0.561968     0.604484     0.103823     0.1   
H1       H      0.561968     0.104484     0.603824     0.1   
H1       H      0.0619677    0.604484     0.603824     0.1   
H1       H      0.677804     0.113286     0.332232     0.1   
H1       H      0.177804     0.613287     0.332232     0.1   
H1       H      0.177804     0.113286     0.832231     0.1   
H1       H      0.677804     0.613287     0.832231     0.1   
H1       H      0.689624     0.0600104    0.304813     0.1   
H1       H      0.189623     0.560011     0.304813     0.1   
H1       H      0.189623     0.0600104    0.804812     0.1   
H1       H      0.689624     0.560011     0.804812     0.1   
H1       H      0.69422      0.12526      0.373888     0.1   
H1       H      0.194221     0.625261     0.373888     0.1   
H1       H      0.194221     0.12526      0.873888     0.1   
H1       H      0.69422      0.625261     0.873888     0.1   
H1       H      0.0907295    0.194082     0.0121733    0.1   
H1       H      0.59073      0.694082     0.0121733    0.1   
H1       H      0.59073      0.194082     0.512173     0.1   
H1       H      0.0907295    0.694082     0.512173     0.1   
H1       H      0.510071     0.199148     0.40084      0.1   
H1       H      0.0100719    0.699147     0.40084      0.1   
H1       H      0.0100719    0.199148     0.900839     0.1   
H1       H      0.510071     0.699147     0.900839     0.1   
Cr2      Cr     0.1952       0.227401     0.2966       1.62  
Cr2      Cr     0.695199     0.7274       0.2966       1.62  
Cr2      Cr     0.695199     0.227401     0.7966       1.62  
Cr2      Cr     0.1952       0.7274       0.7966       1.62  
Cr1      Cr     0.2364       0.1303       0.409999     1.859 
Cr1      Cr     0.736401     0.630301     0.409999     1.859 
Cr1      Cr     0.736401     0.1303       0.91         1.859 
Cr1      Cr     0.2364       0.630301     0.91         1.859 
O3       O      0.154299     0.182901     0.206299    -0.587 
O3       O      0.6543       0.6829       0.206299    -0.587 
O3       O      0.6543       0.182901     0.7063      -0.587 
O3       O      0.154299     0.6829       0.7063      -0.587 
O3       O      0.1347       0.1644       0.185001    -0.587 
O3       O      0.634699     0.664399     0.185001    -0.587 
O3       O      0.634699     0.1644       0.685       -0.587 
O3       O      0.1347       0.664399     0.685       -0.587 
O2       O      0.1517       0.123501     0.3385      -0.731 
O2       O      0.651699     0.6235       0.3385      -0.731 
O2       O      0.651699     0.123501     0.8385      -0.731 
O2       O      0.1517       0.6235       0.8385      -0.731 
O3       O      0.1216       0.100101     0.401301    -0.587 
O3       O      0.6216       0.6001       0.401301    -0.587 
O3       O      0.6216       0.100101     0.9013      -0.587 
O3       O      0.1216       0.6001       0.9013      -0.587 
O3       O      0.159599     0.1154       0.3661      -0.587 
O3       O      0.6596       0.6154       0.3661      -0.587 
O3       O      0.6596       0.1154       0.8661      -0.587 
O3       O      0.159599     0.6154       0.8661      -0.587 
O2       O      0.1736       0.1991       0.267701    -0.731 
O2       O      0.6736       0.6991       0.267701    -0.731 
O2       O      0.6736       0.1991       0.7677      -0.731 
O2       O      0.1736       0.6991       0.7677      -0.731 
O2       O      0.1886       0.1609       0.3019      -0.731 
O2       O      0.6886       0.6609       0.3019      -0.731 
O2       O      0.6886       0.1609       0.8019      -0.731 
O2       O      0.1886       0.6609       0.8019      -0.731 
O3       O      0.177601     0.228        0.2766      -0.587 
O3       O      0.6776       0.728001     0.2766      -0.587 
O3       O      0.6776       0.228        0.7766      -0.587 
O3       O      0.177601     0.728001     0.7766      -0.587 
O3       O      0.2777       0.215799     0.2379      -0.587 
O3       O      0.777701     0.7158       0.2379      -0.587 
O3       O      0.777701     0.215799     0.7379      -0.587 
O3       O      0.2777       0.7158       0.7379      -0.587 
O3       O      0.2038       0.225301     0.319799    -0.587 
O3       O      0.7038       0.7253       0.319799    -0.587 
O3       O      0.7038       0.225301     0.8198      -0.587 
O3       O      0.2038       0.7253       0.8198      -0.587 
O2       O      0.2153       0.1739       0.3095      -0.731 
O2       O      0.715299     0.673901     0.3095      -0.731 
O2       O      0.715299     0.1739       0.8095      -0.731 
O2       O      0.2153       0.673901     0.8095      -0.731 
O3       O      0.2513       0.158401     0.4467      -0.587 
O3       O      0.751301     0.6584       0.4467      -0.587 
O3       O      0.751301     0.158401     0.9467      -0.587 
O3       O      0.2513       0.6584       0.9467      -0.587 
O2       O      0.0801995    0.0273998    0.4297      -0.731 
O2       O      0.5802       0.5274       0.4297      -0.731 
O2       O      0.5802       0.0273998    0.9297      -0.731 
O2       O      0.0801995    0.5274       0.9297      -0.731 
O2       O      0.240101     0.1312       0.4366      -0.731 
O2       O      0.7401       0.6312       0.4366      -0.731 
O2       O      0.7401       0.1312       0.9366      -0.731 
O2       O      0.240101     0.6312       0.9366      -0.731 
O2       O      0.1093       0.0382       0.4208      -0.731 
O2       O      0.609299     0.538199     0.4208      -0.731 
O2       O      0.609299     0.0382       0.9208      -0.731 
O2       O      0.1093       0.538199     0.9208      -0.731 
O2       O      0.225        0.1316       0.386599    -0.731 
O2       O      0.725        0.631599     0.386599    -0.731 
O2       O      0.725        0.1316       0.8866      -0.731 
O2       O      0.225        0.631599     0.8866      -0.731 
O2       O      0.2432       0.1485       0.368401    -0.731 
O2       O      0.7432       0.648499     0.368401    -0.731 
O2       O      0.7432       0.1485       0.8684      -0.731 
O2       O      0.2432       0.648499     0.8684      -0.731 
F1       F      0.1848       0.2514       0.301699    -0.566 
F1       F      0.6848       0.751399     0.301699    -0.566 
F1       F      0.6848       0.2514       0.8017      -0.566 
F1       F      0.1848       0.751399     0.8017      -0.566 
C3       C      0.0989004    0.0749996    0.418301     0.11  
C3       C      0.5989       0.575        0.418301     0.11  
C3       C      0.5989       0.0749996    0.9183       0.11  
C3       C      0.0989004    0.575        0.9183       0.11  
C2       C      0.0855996    0.0616001    0.4291      -0.274 
C2       C      0.5856       0.561599     0.4291      -0.274 
C2       C      0.5856       0.0616001    0.9291      -0.274 
C2       C      0.0855996    0.561599     0.9291      -0.274 
C1       C      0.0923001    0.0415002    0.427901     0.848 
C1       C      0.592299     0.541499     0.427901     0.848 
C1       C      0.592299     0.0415002    0.9279       0.848 
C1       C      0.0923001    0.541499     0.9279       0.848 
C3       C      0.16         0.2092       0.233899     0.11  
C3       C      0.660001     0.7092       0.233899     0.11  
C3       C      0.660001     0.2092       0.7339       0.11  
C3       C      0.16         0.7092       0.7339       0.11  
C2       C      0.1634       0.2225       0.2474      -0.274 
C2       C      0.663399     0.7225       0.2474      -0.274 
C2       C      0.663399     0.2225       0.7474      -0.274 
C2       C      0.1634       0.7225       0.7474      -0.274 
C1       C      0.172399     0.2162       0.2637       0.848 
C1       C      0.6724       0.716201     0.2637       0.848 
C1       C      0.6724       0.2162       0.7637       0.848 
C1       C      0.172399     0.716201     0.7637       0.848 
C2       C      0.203099     0.1481       0.3274      -0.274 
C2       C      0.7031       0.6481       0.3274      -0.274 
C2       C      0.7031       0.1481       0.8274      -0.274 
C2       C      0.203099     0.6481       0.8274      -0.274 
C3       C      0.218901     0.1449       0.3385       0.11  
C3       C      0.7189       0.6449       0.3385       0.11  
C3       C      0.7189       0.1449       0.8385       0.11  
C3       C      0.218901     0.6449       0.8385       0.11  
C2       C      0.2156       0.1361       0.3566      -0.274 
C2       C      0.7156       0.6361       0.3566      -0.274 
C2       C      0.7156       0.1361       0.8566      -0.274 
C2       C      0.2156       0.6361       0.8566      -0.274 
C3       C      0.1971       0.129801     0.3616       0.11  
C3       C      0.697101     0.6298       0.3616       0.11  
C3       C      0.697101     0.129801     0.861601     0.11  
C3       C      0.1971       0.6298       0.861601     0.11  
C2       C      0.1825       0.1301       0.3478      -0.274 
C2       C      0.682499     0.6301       0.3478      -0.274 
C2       C      0.682499     0.1301       0.847801    -0.274 
C2       C      0.1825       0.6301       0.847801    -0.274 
C3       C      0.187299     0.136201     0.3297       0.11  
C3       C      0.6873       0.6362       0.3297       0.11  
C3       C      0.6873       0.136201     0.829701     0.11  
C3       C      0.187299     0.6362       0.829701     0.11  
C1       C      0.163701     0.123        0.3513       0.848 
C1       C      0.6637       0.622999     0.3513       0.848 
C1       C      0.6637       0.123        0.8513       0.848 
C1       C      0.163701     0.622999     0.8513       0.848 
C1       C      0.2283       0.1392       0.3715       0.848 
C1       C      0.7283       0.6392       0.3715       0.848 
C1       C      0.7283       0.1392       0.8715       0.848 
C1       C      0.2283       0.6392       0.8715       0.848 
C1       C      0.2024       0.1614       0.3127       0.848 
C1       C      0.7024       0.6614       0.3127       0.848 
C1       C      0.7024       0.1614       0.812701     0.848 
C1       C      0.2024       0.6614       0.812701     0.848 
C2       C      0.2347       0.2109       0.3788      -0.274 
C2       C      0.7347       0.710901     0.3788      -0.274 
C2       C      0.7347       0.2109       0.8788      -0.274 
C2       C      0.2347       0.710901     0.8788      -0.274 
C3       C      0.2324       0.209301     0.3566       0.11  
C3       C      0.7324       0.7093       0.3566       0.11  
C3       C      0.7324       0.209301     0.8566       0.11  
C3       C      0.2324       0.7093       0.8566       0.11  
C1       C      0.2505       0.1396       0.448099     0.848 
C1       C      0.7505       0.6396       0.448099     0.848 
C1       C      0.7505       0.1396       0.9481       0.848 
C1       C      0.2505       0.6396       0.9481       0.848 
H1       H      0.132108     0.179433     0.318008     0.1   
H1       H      0.632108     0.679432     0.318008     0.1   
H1       H      0.632108     0.179433     0.818009     0.1   
H1       H      0.132108     0.679432     0.818009     0.1   
H1       H      0.149046     0.233061     0.333324     0.1   
H1       H      0.649045     0.733061     0.333324     0.1   
H1       H      0.649045     0.233061     0.833324     0.1   
H1       H      0.149046     0.733061     0.833324     0.1   
H1       H      0.188032     0.104484     0.146176     0.1   
H1       H      0.688031     0.604484     0.146176     0.1   
H1       H      0.688031     0.104484     0.646177     0.1   
H1       H      0.188032     0.604484     0.646177     0.1   
H1       H      0.072196     0.113286     0.417768     0.1   
H1       H      0.572197     0.613287     0.417768     0.1   
H1       H      0.572197     0.113286     0.917769     0.1   
H1       H      0.072196     0.613287     0.917769     0.1   
H1       H      0.0603766    0.0600104    0.445187     0.1   
H1       H      0.560376     0.560011     0.445187     0.1   
H1       H      0.560376     0.0600104    0.945188     0.1   
H1       H      0.0603766    0.560011     0.945188     0.1   
H1       H      0.0557803    0.12526      0.376112     0.1   
H1       H      0.55578      0.625261     0.376112     0.1   
H1       H      0.55578      0.12526      0.876113     0.1   
H1       H      0.0557803    0.625261     0.876113     0.1   
H1       H      0.15927      0.194082     0.237828     0.1   
H1       H      0.659271     0.694082     0.237828     0.1   
H1       H      0.659271     0.194082     0.737827     0.1   
H1       H      0.15927      0.694082     0.737827     0.1   
H1       H      0.239929     0.199148     0.349161     0.1   
H1       H      0.739928     0.699147     0.349161     0.1   
H1       H      0.739928     0.199148     0.84916      0.1   
H1       H      0.239929     0.699147     0.84916      0.1   
Cr1      Cr     0.0547996    0.0226004    0.2966       1.859 
Cr1      Cr     0.5548       0.5226       0.2966       1.859 
Cr1      Cr     0.5548       0.0226004    0.7966       1.859 
Cr1      Cr     0.0547996    0.5226       0.7966       1.859 
Cr1      Cr     0.0135998    0.1197       0.409999     1.859 
Cr1      Cr     0.5136       0.619701     0.409999     1.859 
Cr1      Cr     0.5136       0.1197       0.91         1.859 
Cr1      Cr     0.0135998    0.619701     0.91         1.859 
O2       O      0.0957003    0.0671004    0.206299    -0.731 
O2       O      0.5957       0.5671       0.206299    -0.731 
O2       O      0.5957       0.0671004    0.7063      -0.731 
O2       O      0.0957003    0.5671       0.7063      -0.731 
O2       O      0.1153       0.0855996    0.185001    -0.731 
O2       O      0.6153       0.5856       0.185001    -0.731 
O2       O      0.6153       0.0855996    0.685       -0.731 
O2       O      0.1153       0.5856       0.685       -0.731 
O2       O      0.0982996    0.1265       0.3385      -0.731 
O2       O      0.5983       0.6265       0.3385      -0.731 
O2       O      0.5983       0.1265       0.8385      -0.731 
O2       O      0.0982996    0.6265       0.8385      -0.731 
O2       O      0.1284       0.1499       0.401301    -0.731 
O2       O      0.628399     0.6499       0.401301    -0.731 
O2       O      0.628399     0.1499       0.9013      -0.731 
O2       O      0.1284       0.6499       0.9013      -0.731 
O2       O      0.0904003    0.1346       0.3661      -0.731 
O2       O      0.5904       0.634601     0.3661      -0.731 
O2       O      0.5904       0.1346       0.8661      -0.731 
O2       O      0.0904003    0.634601     0.8661      -0.731 
O3       O      0.0764001    0.0509       0.267701    -0.587 
O3       O      0.576399     0.550899     0.267701    -0.587 
O3       O      0.576399     0.0509       0.7677      -0.587 
O3       O      0.0764001    0.550899     0.7677      -0.587 
O3       O      0.0613999    0.0891       0.3019      -0.587 
O3       O      0.561401     0.589099     0.3019      -0.587 
O3       O      0.561401     0.0891       0.8019      -0.587 
O3       O      0.0613999    0.589099     0.8019      -0.587 
O2       O      0.0724004    0.0219997    0.2766      -0.731 
O2       O      0.5724       0.522        0.2766      -0.731 
O2       O      0.5724       0.0219997    0.7766      -0.731 
O2       O      0.0724004    0.522        0.7766      -0.731 
O2       O      0.9723       0.0342003    0.2379      -0.731 
O2       O      0.472301     0.5342       0.2379      -0.731 
O2       O      0.472301     0.0342003    0.7379      -0.731 
O2       O      0.9723       0.5342       0.7379      -0.731 
O2       O      0.0461994    0.0247004    0.319799    -0.731 
O2       O      0.5462       0.5247       0.319799    -0.731 
O2       O      0.5462       0.0247004    0.8198      -0.731 
O2       O      0.0461994    0.5247       0.8198      -0.731 
O2       O      0.0346996    0.0760997    0.3095      -0.731 
O2       O      0.5347       0.5761       0.3095      -0.731 
O2       O      0.5347       0.0760997    0.8095      -0.731 
O2       O      0.0346996    0.5761       0.8095      -0.731 
O3       O      0.9987       0.0916005    0.4467      -0.587 
O3       O      0.4987       0.5916       0.4467      -0.587 
O3       O      0.4987       0.0916005    0.9467      -0.587 
O3       O      0.9987       0.5916       0.9467      -0.587 
O2       O      0.1698       0.2226       0.4297      -0.731 
O2       O      0.669799     0.722601     0.4297      -0.731 
O2       O      0.669799     0.2226       0.9297      -0.731 
O2       O      0.1698       0.722601     0.9297      -0.731 
O2       O      0.00990046   0.1188       0.4366      -0.731 
O2       O      0.5099       0.618799     0.4366      -0.731 
O2       O      0.5099       0.1188       0.9366      -0.731 
O2       O      0.00990046   0.618799     0.9366      -0.731 
O2       O      0.1407       0.2118       0.4208      -0.731 
O2       O      0.6407       0.7118       0.4208      -0.731 
O2       O      0.6407       0.2118       0.9208      -0.731 
O2       O      0.1407       0.7118       0.9208      -0.731 
O2       O      0.0249994    0.1184       0.386599    -0.731 
O2       O      0.525        0.6184       0.386599    -0.731 
O2       O      0.525        0.1184       0.8866      -0.731 
O2       O      0.0249994    0.6184       0.8866      -0.731 
O2       O      0.00680057   0.1015       0.368401    -0.731 
O2       O      0.5068       0.6015       0.368401    -0.731 
O2       O      0.5068       0.1015       0.8684      -0.731 
O2       O      0.00680057   0.6015       0.8684      -0.731 
C3       C      0.151101     0.175        0.418301     0.11  
C3       C      0.6511       0.674999     0.418301     0.11  
C3       C      0.6511       0.175        0.9183       0.11  
C3       C      0.151101     0.674999     0.9183       0.11  
C2       C      0.1644       0.1884       0.4291      -0.274 
C2       C      0.664399     0.6884       0.4291      -0.274 
C2       C      0.664399     0.1884       0.9291      -0.274 
C2       C      0.1644       0.6884       0.9291      -0.274 
C1       C      0.1577       0.208499     0.427901     0.848 
C1       C      0.6577       0.7085       0.427901     0.848 
C1       C      0.6577       0.208499     0.9279       0.848 
C1       C      0.1577       0.7085       0.9279       0.848 
C3       C      0.0899998    0.0408007    0.233899     0.11  
C3       C      0.590001     0.5408       0.233899     0.11  
C3       C      0.590001     0.0408007    0.7339       0.11  
C3       C      0.0899998    0.5408       0.7339       0.11  
C2       C      0.0865995    0.0274999    0.2474      -0.274 
C2       C      0.5866       0.527501     0.2474      -0.274 
C2       C      0.5866       0.0274999    0.7474      -0.274 
C2       C      0.0865995    0.527501     0.7474      -0.274 
C1       C      0.0776002    0.0337998    0.2637       0.848 
C1       C      0.5776       0.533801     0.2637       0.848 
C1       C      0.5776       0.0337998    0.7637       0.848 
C1       C      0.0776002    0.533801     0.7637       0.848 
C2       C      0.0469003    0.1019       0.3274      -0.274 
C2       C      0.5469       0.601899     0.3274      -0.274 
C2       C      0.5469       0.1019       0.8274      -0.274 
C2       C      0.0469003    0.601899     0.8274      -0.274 
C3       C      0.0311004    0.1051       0.3385       0.11  
C3       C      0.5311       0.605099     0.3385       0.11  
C3       C      0.5311       0.1051       0.8385       0.11  
C3       C      0.0311004    0.605099     0.8385       0.11  
C2       C      0.0344006    0.113901     0.3566      -0.274 
C2       C      0.5344       0.6139       0.3566      -0.274 
C2       C      0.5344       0.113901     0.8566      -0.274 
C2       C      0.0344006    0.6139       0.8566      -0.274 
C3       C      0.0528998    0.1202       0.3616       0.11  
C3       C      0.552901     0.6202       0.3616       0.11  
C3       C      0.552901     0.1202       0.861601     0.11  
C3       C      0.0528998    0.6202       0.861601     0.11  
C2       C      0.0674995    0.1199       0.3478      -0.274 
C2       C      0.5675       0.619899     0.3478      -0.274 
C2       C      0.5675       0.1199       0.847801    -0.274 
C2       C      0.0674995    0.619899     0.847801    -0.274 
C3       C      0.0627002    0.1138       0.3297       0.11  
C3       C      0.562699     0.6138       0.3297       0.11  
C3       C      0.562699     0.1138       0.829701     0.11  
C3       C      0.0627002    0.6138       0.829701     0.11  
C1       C      0.0863005    0.127        0.3513       0.848 
C1       C      0.5863       0.627        0.3513       0.848 
C1       C      0.5863       0.127        0.8513       0.848 
C1       C      0.0863005    0.627        0.8513       0.848 
C1       C      0.0217006    0.110801     0.3715       0.848 
C1       C      0.5217       0.6108       0.3715       0.848 
C1       C      0.5217       0.110801     0.8715       0.848 
C1       C      0.0217006    0.6108       0.8715       0.848 
C1       C      0.0475998    0.0885994    0.3127       0.848 
C1       C      0.547601     0.5886       0.3127       0.848 
C1       C      0.547601     0.0885994    0.812701     0.848 
C1       C      0.0475998    0.5886       0.812701     0.848 
C2       C      0.0153006    0.0390998    0.3788      -0.274 
C2       C      0.5153       0.539101     0.3788      -0.274 
C2       C      0.5153       0.0390998    0.8788      -0.274 
C2       C      0.0153006    0.539101     0.8788      -0.274 
C3       C      0.0175994    0.0407005    0.3566       0.11  
C3       C      0.5176       0.5407       0.3566       0.11  
C3       C      0.5176       0.0407005    0.8566       0.11  
C3       C      0.0175994    0.5407       0.8566       0.11  
C1       C      0.999499     0.1104       0.448099     0.848 
C1       C      0.4995       0.610399     0.448099     0.848 
C1       C      0.4995       0.1104       0.9481       0.848 
C1       C      0.999499     0.610399     0.9481       0.848 
H1       H      0.117892     0.0705665    0.318008     0.1   
H1       H      0.617893     0.570567     0.318008     0.1   
H1       H      0.617893     0.0705665    0.818009     0.1   
H1       H      0.117892     0.570567     0.818009     0.1   
H1       H      0.100955     0.0169397    0.333324     0.1   
H1       H      0.600954     0.516939     0.333324     0.1   
H1       H      0.600954     0.0169397    0.833324     0.1   
H1       H      0.100955     0.516939     0.833324     0.1   
H1       H      0.177804     0.136714     0.417768     0.1   
H1       H      0.677804     0.636714     0.417768     0.1   
H1       H      0.677804     0.136714     0.917769     0.1   
H1       H      0.177804     0.636714     0.917769     0.1   
H1       H      0.194221     0.124739     0.376112     0.1   
H1       H      0.69422      0.62474      0.376112     0.1   
H1       H      0.69422      0.124739     0.876113     0.1   
H1       H      0.194221     0.62474      0.876113     0.1   
H1       H      0.0907295    0.0559174    0.237828     0.1   
H1       H      0.59073      0.555918     0.237828     0.1   
H1       H      0.59073      0.0559174    0.737827     0.1   
H1       H      0.0907295    0.555918     0.737827     0.1   
H1       H      0.0100719    0.050852     0.349161     0.1   
H1       H      0.510071     0.550853     0.349161     0.1   
H1       H      0.510071     0.050852     0.84916      0.1   
H1       H      0.0100719    0.550853     0.84916      0.1   
Cr1      Cr     0.0226004    0.2966       0.0547996    1.859 
Cr1      Cr     0.5226       0.7966       0.0547996    1.859 
Cr1      Cr     0.5226       0.2966       0.5548       1.859 
Cr1      Cr     0.0226004    0.7966       0.5548       1.859 
Cr1      Cr     0.1197       0.409999     0.0135998    1.859 
Cr1      Cr     0.619701     0.91         0.0135998    1.859 
Cr1      Cr     0.619701     0.409999     0.5136       1.859 
Cr1      Cr     0.1197       0.91         0.5136       1.859 
O3       O      0.0671004    0.206299     0.0957003   -0.587 
O3       O      0.5671       0.7063       0.0957003   -0.587 
O3       O      0.5671       0.206299     0.5957      -0.587 
O3       O      0.0671004    0.7063       0.5957      -0.587 
O3       O      0.0855996    0.185001     0.1153      -0.587 
O3       O      0.5856       0.685        0.1153      -0.587 
O3       O      0.5856       0.185001     0.6153      -0.587 
O3       O      0.0855996    0.685        0.6153      -0.587 
O2       O      0.1265       0.3385       0.0982996   -0.731 
O2       O      0.6265       0.8385       0.0982996   -0.731 
O2       O      0.6265       0.3385       0.5983      -0.731 
O2       O      0.1265       0.8385       0.5983      -0.731 
O2       O      0.1499       0.401301     0.1284      -0.731 
O2       O      0.6499       0.9013       0.1284      -0.731 
O2       O      0.6499       0.401301     0.628399    -0.731 
O2       O      0.1499       0.9013       0.628399    -0.731 
O2       O      0.1346       0.3661       0.0904003   -0.731 
O2       O      0.634601     0.8661       0.0904003   -0.731 
O2       O      0.634601     0.3661       0.5904      -0.731 
O2       O      0.1346       0.8661       0.5904      -0.731 
O2       O      0.0509       0.267701     0.0764001   -0.731 
O2       O      0.550899     0.7677       0.0764001   -0.731 
O2       O      0.550899     0.267701     0.576399    -0.731 
O2       O      0.0509       0.7677       0.576399    -0.731 
O2       O      0.0891       0.3019       0.0613999   -0.731 
O2       O      0.589099     0.8019       0.0613999   -0.731 
O2       O      0.589099     0.3019       0.561401    -0.731 
O2       O      0.0891       0.8019       0.561401    -0.731 
O2       O      0.0219997    0.2766       0.0724004   -0.731 
O2       O      0.522        0.7766       0.0724004   -0.731 
O2       O      0.522        0.2766       0.5724      -0.731 
O2       O      0.0219997    0.7766       0.5724      -0.731 
O2       O      0.5342       0.2379       0.472301    -0.731 
O2       O      0.0342003    0.7379       0.472301    -0.731 
O2       O      0.0342003    0.2379       0.9723      -0.731 
O2       O      0.5342       0.7379       0.9723      -0.731 
O2       O      0.0247004    0.319799     0.0461994   -0.731 
O2       O      0.5247       0.8198       0.0461994   -0.731 
O2       O      0.5247       0.319799     0.5462      -0.731 
O2       O      0.0247004    0.8198       0.5462      -0.731 
O3       O      0.0760997    0.3095       0.0346996   -0.587 
O3       O      0.5761       0.8095       0.0346996   -0.587 
O3       O      0.5761       0.3095       0.5347      -0.587 
O3       O      0.0760997    0.8095       0.5347      -0.587 
O3       O      0.5916       0.4467       0.4987      -0.587 
O3       O      0.0916005    0.9467       0.4987      -0.587 
O3       O      0.0916005    0.4467       0.9987      -0.587 
O3       O      0.5916       0.9467       0.9987      -0.587 
O3       O      0.2226       0.4297       0.1698      -0.587 
O3       O      0.722601     0.9297       0.1698      -0.587 
O3       O      0.722601     0.4297       0.669799    -0.587 
O3       O      0.2226       0.9297       0.669799    -0.587 
O2       O      0.1188       0.4366       0.00990046  -0.731 
O2       O      0.618799     0.9366       0.00990046  -0.731 
O2       O      0.618799     0.4366       0.5099      -0.731 
O2       O      0.1188       0.9366       0.5099      -0.731 
O2       O      0.2118       0.4208       0.1407      -0.731 
O2       O      0.7118       0.9208       0.1407      -0.731 
O2       O      0.7118       0.4208       0.6407      -0.731 
O2       O      0.2118       0.9208       0.6407      -0.731 
O2       O      0.1184       0.386599     0.0249994   -0.731 
O2       O      0.6184       0.8866       0.0249994   -0.731 
O2       O      0.6184       0.386599     0.525       -0.731 
O2       O      0.1184       0.8866       0.525       -0.731 
O2       O      0.1015       0.368401     0.00680057  -0.731 
O2       O      0.6015       0.8684       0.00680057  -0.731 
O2       O      0.6015       0.368401     0.5068      -0.731 
O2       O      0.1015       0.8684       0.5068      -0.731 
C3       C      0.175        0.418301     0.151101     0.11  
C3       C      0.674999     0.9183       0.151101     0.11  
C3       C      0.674999     0.418301     0.6511       0.11  
C3       C      0.175        0.9183       0.6511       0.11  
C2       C      0.1884       0.4291       0.1644      -0.274 
C2       C      0.6884       0.9291       0.1644      -0.274 
C2       C      0.6884       0.4291       0.664399    -0.274 
C2       C      0.1884       0.9291       0.664399    -0.274 
C1       C      0.208499     0.427901     0.1577       0.848 
C1       C      0.7085       0.9279       0.1577       0.848 
C1       C      0.7085       0.427901     0.6577       0.848 
C1       C      0.208499     0.9279       0.6577       0.848 
C3       C      0.0408007    0.233899     0.0899998    0.11  
C3       C      0.5408       0.7339       0.0899998    0.11  
C3       C      0.5408       0.233899     0.590001     0.11  
C3       C      0.0408007    0.7339       0.590001     0.11  
C2       C      0.0274999    0.2474       0.0865995   -0.274 
C2       C      0.527501     0.7474       0.0865995   -0.274 
C2       C      0.527501     0.2474       0.5866      -0.274 
C2       C      0.0274999    0.7474       0.5866      -0.274 
C1       C      0.0337998    0.2637       0.0776002    0.848 
C1       C      0.533801     0.7637       0.0776002    0.848 
C1       C      0.533801     0.2637       0.5776       0.848 
C1       C      0.0337998    0.7637       0.5776       0.848 
C2       C      0.1019       0.3274       0.0469003   -0.274 
C2       C      0.601899     0.8274       0.0469003   -0.274 
C2       C      0.601899     0.3274       0.5469      -0.274 
C2       C      0.1019       0.8274       0.5469      -0.274 
C3       C      0.1051       0.3385       0.0311004    0.11  
C3       C      0.605099     0.8385       0.0311004    0.11  
C3       C      0.605099     0.3385       0.5311       0.11  
C3       C      0.1051       0.8385       0.5311       0.11  
C2       C      0.113901     0.3566       0.0344006   -0.274 
C2       C      0.6139       0.8566       0.0344006   -0.274 
C2       C      0.6139       0.3566       0.5344      -0.274 
C2       C      0.113901     0.8566       0.5344      -0.274 
C3       C      0.1202       0.3616       0.0528998    0.11  
C3       C      0.6202       0.861601     0.0528998    0.11  
C3       C      0.6202       0.3616       0.552901     0.11  
C3       C      0.1202       0.861601     0.552901     0.11  
C2       C      0.1199       0.3478       0.0674995   -0.274 
C2       C      0.619899     0.847801     0.0674995   -0.274 
C2       C      0.619899     0.3478       0.5675      -0.274 
C2       C      0.1199       0.847801     0.5675      -0.274 
C3       C      0.1138       0.3297       0.0627002    0.11  
C3       C      0.6138       0.829701     0.0627002    0.11  
C3       C      0.6138       0.3297       0.562699     0.11  
C3       C      0.1138       0.829701     0.562699     0.11  
C1       C      0.127        0.3513       0.0863005    0.848 
C1       C      0.627        0.8513       0.0863005    0.848 
C1       C      0.627        0.3513       0.5863       0.848 
C1       C      0.127        0.8513       0.5863       0.848 
C1       C      0.110801     0.3715       0.0217006    0.848 
C1       C      0.6108       0.8715       0.0217006    0.848 
C1       C      0.6108       0.3715       0.5217       0.848 
C1       C      0.110801     0.8715       0.5217       0.848 
C1       C      0.0885994    0.3127       0.0475998    0.848 
C1       C      0.5886       0.812701     0.0475998    0.848 
C1       C      0.5886       0.3127       0.547601     0.848 
C1       C      0.0885994    0.812701     0.547601     0.848 
C2       C      0.0390998    0.3788       0.0153006   -0.274 
C2       C      0.539101     0.8788       0.0153006   -0.274 
C2       C      0.539101     0.3788       0.5153      -0.274 
C2       C      0.0390998    0.8788       0.5153      -0.274 
C3       C      0.0407005    0.3566       0.0175994    0.11  
C3       C      0.5407       0.8566       0.0175994    0.11  
C3       C      0.5407       0.3566       0.5176       0.11  
C3       C      0.0407005    0.8566       0.5176       0.11  
C1       C      0.610399     0.448099     0.4995       0.848 
C1       C      0.1104       0.9481       0.4995       0.848 
C1       C      0.1104       0.448099     0.999499     0.848 
C1       C      0.610399     0.9481       0.999499     0.848 
H1       H      0.0705665    0.318008     0.117892     0.1   
H1       H      0.570567     0.818009     0.117892     0.1   
H1       H      0.570567     0.318008     0.617893     0.1   
H1       H      0.0705665    0.818009     0.617893     0.1   
H1       H      0.0169397    0.333324     0.100955     0.1   
H1       H      0.516939     0.833324     0.100955     0.1   
H1       H      0.516939     0.333324     0.600954     0.1   
H1       H      0.0169397    0.833324     0.600954     0.1   
H1       H      0.145517     0.146176     0.0619677    0.1   
H1       H      0.645516     0.646177     0.0619677    0.1   
H1       H      0.645516     0.146176     0.561968     0.1   
H1       H      0.145517     0.646177     0.561968     0.1   
H1       H      0.136714     0.417768     0.177804     0.1   
H1       H      0.636714     0.917769     0.177804     0.1   
H1       H      0.636714     0.417768     0.677804     0.1   
H1       H      0.136714     0.917769     0.677804     0.1   
H1       H      0.189989     0.445187     0.189623     0.1   
H1       H      0.689989     0.945188     0.189623     0.1   
H1       H      0.689989     0.445187     0.689624     0.1   
H1       H      0.189989     0.945188     0.689624     0.1   
H1       H      0.124739     0.376112     0.194221     0.1   
H1       H      0.62474      0.876113     0.194221     0.1   
H1       H      0.62474      0.376112     0.69422      0.1   
H1       H      0.124739     0.876113     0.69422      0.1   
H1       H      0.0559174    0.237828     0.0907295    0.1   
H1       H      0.555918     0.737827     0.0907295    0.1   
H1       H      0.555918     0.237828     0.59073      0.1   
H1       H      0.0559174    0.737827     0.59073      0.1   
H1       H      0.050852     0.349161     0.0100719    0.1   
H1       H      0.550853     0.84916      0.0100719    0.1   
H1       H      0.550853     0.349161     0.510071     0.1   
H1       H      0.050852     0.84916      0.510071     0.1   
Cr2      Cr     0.227401     0.2966       0.1952       1.62  
Cr2      Cr     0.7274       0.7966       0.1952       1.62  
Cr2      Cr     0.7274       0.2966       0.695199     1.62  
Cr2      Cr     0.227401     0.7966       0.695199     1.62  
Cr1      Cr     0.1303       0.409999     0.2364       1.859 
Cr1      Cr     0.630301     0.91         0.2364       1.859 
Cr1      Cr     0.630301     0.409999     0.736401     1.859 
Cr1      Cr     0.1303       0.91         0.736401     1.859 
O2       O      0.182901     0.206299     0.154299    -0.731 
O2       O      0.6829       0.7063       0.154299    -0.731 
O2       O      0.6829       0.206299     0.6543      -0.731 
O2       O      0.182901     0.7063       0.6543      -0.731 
O2       O      0.1644       0.185001     0.1347      -0.731 
O2       O      0.664399     0.685        0.1347      -0.731 
O2       O      0.664399     0.185001     0.634699    -0.731 
O2       O      0.1644       0.685        0.634699    -0.731 
O2       O      0.123501     0.3385       0.1517      -0.731 
O2       O      0.6235       0.8385       0.1517      -0.731 
O2       O      0.6235       0.3385       0.651699    -0.731 
O2       O      0.123501     0.8385       0.651699    -0.731 
O3       O      0.100101     0.401301     0.1216      -0.587 
O3       O      0.6001       0.9013       0.1216      -0.587 
O3       O      0.6001       0.401301     0.6216      -0.587 
O3       O      0.100101     0.9013       0.6216      -0.587 
O3       O      0.1154       0.3661       0.159599    -0.587 
O3       O      0.6154       0.8661       0.159599    -0.587 
O3       O      0.6154       0.3661       0.6596      -0.587 
O3       O      0.1154       0.8661       0.6596      -0.587 
O2       O      0.1991       0.267701     0.1736      -0.731 
O2       O      0.6991       0.7677       0.1736      -0.731 
O2       O      0.6991       0.267701     0.6736      -0.731 
O2       O      0.1991       0.7677       0.6736      -0.731 
O2       O      0.1609       0.3019       0.1886      -0.731 
O2       O      0.6609       0.8019       0.1886      -0.731 
O2       O      0.6609       0.3019       0.6886      -0.731 
O2       O      0.1609       0.8019       0.6886      -0.731 
O3       O      0.228        0.2766       0.177601    -0.587 
O3       O      0.728001     0.7766       0.177601    -0.587 
O3       O      0.728001     0.2766       0.6776      -0.587 
O3       O      0.228        0.7766       0.6776      -0.587 
O3       O      0.215799     0.2379       0.2777      -0.587 
O3       O      0.7158       0.7379       0.2777      -0.587 
O3       O      0.7158       0.2379       0.777701    -0.587 
O3       O      0.215799     0.7379       0.777701    -0.587 
O3       O      0.225301     0.319799     0.2038      -0.587 
O3       O      0.7253       0.8198       0.2038      -0.587 
O3       O      0.7253       0.319799     0.7038      -0.587 
O3       O      0.225301     0.8198       0.7038      -0.587 
O2       O      0.1739       0.3095       0.2153      -0.731 
O2       O      0.673901     0.8095       0.2153      -0.731 
O2       O      0.673901     0.3095       0.715299    -0.731 
O2       O      0.1739       0.8095       0.715299    -0.731 
O2       O      0.158401     0.4467       0.2513      -0.731 
O2       O      0.6584       0.9467       0.2513      -0.731 
O2       O      0.6584       0.4467       0.751301    -0.731 
O2       O      0.158401     0.9467       0.751301    -0.731 
O2       O      0.0273998    0.4297       0.0801995   -0.731 
O2       O      0.5274       0.9297       0.0801995   -0.731 
O2       O      0.5274       0.4297       0.5802      -0.731 
O2       O      0.0273998    0.9297       0.5802      -0.731 
O2       O      0.1312       0.4366       0.240101    -0.731 
O2       O      0.6312       0.9366       0.240101    -0.731 
O2       O      0.6312       0.4366       0.7401      -0.731 
O2       O      0.1312       0.9366       0.7401      -0.731 
O2       O      0.0382       0.4208       0.1093      -0.731 
O2       O      0.538199     0.9208       0.1093      -0.731 
O2       O      0.538199     0.4208       0.609299    -0.731 
O2       O      0.0382       0.9208       0.609299    -0.731 
O2       O      0.1316       0.386599     0.225       -0.731 
O2       O      0.631599     0.8866       0.225       -0.731 
O2       O      0.631599     0.386599     0.725       -0.731 
O2       O      0.1316       0.8866       0.725       -0.731 
O3       O      0.1485       0.368401     0.2432      -0.587 
O3       O      0.648499     0.8684       0.2432      -0.587 
O3       O      0.648499     0.368401     0.7432      -0.587 
O3       O      0.1485       0.8684       0.7432      -0.587 
F1       F      0.2514       0.301699     0.1848      -0.566 
F1       F      0.751399     0.8017       0.1848      -0.566 
F1       F      0.751399     0.301699     0.6848      -0.566 
F1       F      0.2514       0.8017       0.6848      -0.566 
C3       C      0.0749996    0.418301     0.0989004    0.11  
C3       C      0.575        0.9183       0.0989004    0.11  
C3       C      0.575        0.418301     0.5989       0.11  
C3       C      0.0749996    0.9183       0.5989       0.11  
C2       C      0.0616001    0.4291       0.0855996   -0.274 
C2       C      0.561599     0.9291       0.0855996   -0.274 
C2       C      0.561599     0.4291       0.5856      -0.274 
C2       C      0.0616001    0.9291       0.5856      -0.274 
C1       C      0.0415002    0.427901     0.0923001    0.848 
C1       C      0.541499     0.9279       0.0923001    0.848 
C1       C      0.541499     0.427901     0.592299     0.848 
C1       C      0.0415002    0.9279       0.592299     0.848 
C3       C      0.2092       0.233899     0.16         0.11  
C3       C      0.7092       0.7339       0.16         0.11  
C3       C      0.7092       0.233899     0.660001     0.11  
C3       C      0.2092       0.7339       0.660001     0.11  
C2       C      0.2225       0.2474       0.1634      -0.274 
C2       C      0.7225       0.7474       0.1634      -0.274 
C2       C      0.7225       0.2474       0.663399    -0.274 
C2       C      0.2225       0.7474       0.663399    -0.274 
C1       C      0.2162       0.2637       0.172399     0.848 
C1       C      0.716201     0.7637       0.172399     0.848 
C1       C      0.716201     0.2637       0.6724       0.848 
C1       C      0.2162       0.7637       0.6724       0.848 
C2       C      0.1481       0.3274       0.203099    -0.274 
C2       C      0.6481       0.8274       0.203099    -0.274 
C2       C      0.6481       0.3274       0.7031      -0.274 
C2       C      0.1481       0.8274       0.7031      -0.274 
C3       C      0.1449       0.3385       0.218901     0.11  
C3       C      0.6449       0.8385       0.218901     0.11  
C3       C      0.6449       0.3385       0.7189       0.11  
C3       C      0.1449       0.8385       0.7189       0.11  
C2       C      0.1361       0.3566       0.2156      -0.274 
C2       C      0.6361       0.8566       0.2156      -0.274 
C2       C      0.6361       0.3566       0.7156      -0.274 
C2       C      0.1361       0.8566       0.7156      -0.274 
C3       C      0.129801     0.3616       0.1971       0.11  
C3       C      0.6298       0.861601     0.1971       0.11  
C3       C      0.6298       0.3616       0.697101     0.11  
C3       C      0.129801     0.861601     0.697101     0.11  
C2       C      0.1301       0.3478       0.1825      -0.274 
C2       C      0.6301       0.847801     0.1825      -0.274 
C2       C      0.6301       0.3478       0.682499    -0.274 
C2       C      0.1301       0.847801     0.682499    -0.274 
C3       C      0.136201     0.3297       0.187299     0.11  
C3       C      0.6362       0.829701     0.187299     0.11  
C3       C      0.6362       0.3297       0.6873       0.11  
C3       C      0.136201     0.829701     0.6873       0.11  
C1       C      0.123        0.3513       0.163701     0.848 
C1       C      0.622999     0.8513       0.163701     0.848 
C1       C      0.622999     0.3513       0.6637       0.848 
C1       C      0.123        0.8513       0.6637       0.848 
C1       C      0.1392       0.3715       0.2283       0.848 
C1       C      0.6392       0.8715       0.2283       0.848 
C1       C      0.6392       0.3715       0.7283       0.848 
C1       C      0.1392       0.8715       0.7283       0.848 
C1       C      0.1614       0.3127       0.2024       0.848 
C1       C      0.6614       0.812701     0.2024       0.848 
C1       C      0.6614       0.3127       0.7024       0.848 
C1       C      0.1614       0.812701     0.7024       0.848 
C2       C      0.2109       0.3788       0.2347      -0.274 
C2       C      0.710901     0.8788       0.2347      -0.274 
C2       C      0.710901     0.3788       0.7347      -0.274 
C2       C      0.2109       0.8788       0.7347      -0.274 
C3       C      0.209301     0.3566       0.2324       0.11  
C3       C      0.7093       0.8566       0.2324       0.11  
C3       C      0.7093       0.3566       0.7324       0.11  
C3       C      0.209301     0.8566       0.7324       0.11  
C1       C      0.1396       0.448099     0.2505       0.848 
C1       C      0.6396       0.9481       0.2505       0.848 
C1       C      0.6396       0.448099     0.7505       0.848 
C1       C      0.1396       0.9481       0.7505       0.848 
H1       H      0.179433     0.318008     0.132108     0.1   
H1       H      0.679432     0.818009     0.132108     0.1   
H1       H      0.679432     0.318008     0.632108     0.1   
H1       H      0.179433     0.818009     0.632108     0.1   
H1       H      0.233061     0.333324     0.149046     0.1   
H1       H      0.733061     0.833324     0.149046     0.1   
H1       H      0.733061     0.333324     0.649045     0.1   
H1       H      0.233061     0.833324     0.649045     0.1   
H1       H      0.104484     0.146176     0.188032     0.1   
H1       H      0.604484     0.646177     0.188032     0.1   
H1       H      0.604484     0.146176     0.688031     0.1   
H1       H      0.104484     0.646177     0.688031     0.1   
H1       H      0.113286     0.417768     0.072196     0.1   
H1       H      0.613287     0.917769     0.072196     0.1   
H1       H      0.613287     0.417768     0.572197     0.1   
H1       H      0.113286     0.917769     0.572197     0.1   
H1       H      0.0600104    0.445187     0.0603766    0.1   
H1       H      0.560011     0.945188     0.0603766    0.1   
H1       H      0.560011     0.445187     0.560376     0.1   
H1       H      0.0600104    0.945188     0.560376     0.1   
H1       H      0.12526      0.376112     0.0557803    0.1   
H1       H      0.625261     0.876113     0.0557803    0.1   
H1       H      0.625261     0.376112     0.55578      0.1   
H1       H      0.12526      0.876113     0.55578      0.1   
H1       H      0.194082     0.237828     0.15927      0.1   
H1       H      0.694082     0.737827     0.15927      0.1   
H1       H      0.694082     0.237828     0.659271     0.1   
H1       H      0.194082     0.737827     0.659271     0.1   
H1       H      0.199148     0.349161     0.239929     0.1   
H1       H      0.699147     0.84916      0.239929     0.1   
H1       H      0.699147     0.349161     0.739928     0.1   
H1       H      0.199148     0.84916      0.739928     0.1   
Cr2      Cr     0.7274       0.453399     0.0547996    1.62  
Cr2      Cr     0.227401     0.9534       0.0547996    1.62  
Cr2      Cr     0.227401     0.453399     0.5548       1.62  
Cr2      Cr     0.7274       0.9534       0.5548       1.62  
Cr1      Cr     0.630301     0.339999     0.0135998    1.859 
Cr1      Cr     0.1303       0.84         0.0135998    1.859 
Cr1      Cr     0.1303       0.339999     0.5136       1.859 
Cr1      Cr     0.630301     0.84         0.5136       1.859 
O3       O      0.182901     0.0437003    0.0957003   -0.587 
O3       O      0.6829       0.5437       0.0957003   -0.587 
O3       O      0.6829       0.0437003    0.5957      -0.587 
O3       O      0.182901     0.5437       0.5957      -0.587 
O3       O      0.1644       0.0650004    0.1153      -0.587 
O3       O      0.664399     0.565        0.1153      -0.587 
O3       O      0.664399     0.0650004    0.6153      -0.587 
O3       O      0.1644       0.565        0.6153      -0.587 
O2       O      0.6235       0.4115       0.0982996   -0.731 
O2       O      0.123501     0.911499     0.0982996   -0.731 
O2       O      0.123501     0.4115       0.5983      -0.731 
O2       O      0.6235       0.911499     0.5983      -0.731 
O3       O      0.6001       0.3487       0.1284      -0.587 
O3       O      0.100101     0.8487       0.1284      -0.587 
O3       O      0.100101     0.3487       0.628399    -0.587 
O3       O      0.6001       0.8487       0.628399    -0.587 
O3       O      0.6154       0.3839       0.0904003   -0.587 
O3       O      0.1154       0.883899     0.0904003   -0.587 
O3       O      0.1154       0.3839       0.5904      -0.587 
O3       O      0.6154       0.883899     0.5904      -0.587 
O2       O      0.6991       0.4823       0.0764001   -0.731 
O2       O      0.1991       0.9823       0.0764001   -0.731 
O2       O      0.1991       0.4823       0.576399    -0.731 
O2       O      0.6991       0.9823       0.576399    -0.731 
O2       O      0.6609       0.448099     0.0613999   -0.731 
O2       O      0.1609       0.9481       0.0613999   -0.731 
O2       O      0.1609       0.448099     0.561401    -0.731 
O2       O      0.6609       0.9481       0.561401    -0.731 
O3       O      0.728001     0.473401     0.0724004   -0.587 
O3       O      0.228        0.9734       0.0724004   -0.587 
O3       O      0.228        0.473401     0.5724      -0.587 
O3       O      0.728001     0.9734       0.5724      -0.587 
O3       O      0.7158       0.0121006    0.472301    -0.587 
O3       O      0.215799     0.5121       0.472301    -0.587 
O3       O      0.215799     0.0121006    0.9723      -0.587 
O3       O      0.7158       0.5121       0.9723      -0.587 
O3       O      0.7253       0.4302       0.0461994   -0.587 
O3       O      0.225301     0.9302       0.0461994   -0.587 
O3       O      0.225301     0.4302       0.5462      -0.587 
O3       O      0.7253       0.9302       0.5462      -0.587 
O2       O      0.673901     0.440501     0.0346996   -0.731 
O2       O      0.1739       0.9405       0.0346996   -0.731 
O2       O      0.1739       0.440501     0.5347      -0.731 
O2       O      0.673901     0.9405       0.5347      -0.731 
O3       O      0.158401     0.3033       0.4987      -0.587 
O3       O      0.6584       0.803301     0.4987      -0.587 
O3       O      0.6584       0.3033       0.9987      -0.587 
O3       O      0.158401     0.803301     0.9987      -0.587 
O3       O      0.5274       0.3203       0.1698      -0.587 
O3       O      0.0273998    0.820299     0.1698      -0.587 
O3       O      0.0273998    0.3203       0.669799    -0.587 
O3       O      0.5274       0.820299     0.669799    -0.587 
O2       O      0.6312       0.313399     0.00990046  -0.731 
O2       O      0.1312       0.8134       0.00990046  -0.731 
O2       O      0.1312       0.313399     0.5099      -0.731 
O2       O      0.6312       0.8134       0.5099      -0.731 
O2       O      0.538199     0.329201     0.1407      -0.731 
O2       O      0.0382       0.8292       0.1407      -0.731 
O2       O      0.0382       0.329201     0.6407      -0.731 
O2       O      0.538199     0.8292       0.6407      -0.731 
O2       O      0.631599     0.3634       0.0249994   -0.731 
O2       O      0.1316       0.8634       0.0249994   -0.731 
O2       O      0.1316       0.3634       0.525       -0.731 
O2       O      0.631599     0.8634       0.525       -0.731 
O2       O      0.648499     0.3816       0.00680057  -0.731 
O2       O      0.1485       0.8816       0.00680057  -0.731 
O2       O      0.1485       0.3816       0.5068      -0.731 
O2       O      0.648499     0.8816       0.5068      -0.731 
F1       F      0.751399     0.4483       0.0652007   -0.566 
F1       F      0.2514       0.9483       0.0652007   -0.566 
F1       F      0.2514       0.4483       0.5652      -0.566 
F1       F      0.751399     0.9483       0.5652      -0.566 
C3       C      0.575        0.3317       0.151101     0.11  
C3       C      0.0749996    0.8317       0.151101     0.11  
C3       C      0.0749996    0.3317       0.6511       0.11  
C3       C      0.575        0.8317       0.6511       0.11  
C2       C      0.561599     0.320899     0.1644      -0.274 
C2       C      0.0616001    0.8209       0.1644      -0.274 
C2       C      0.0616001    0.320899     0.664399    -0.274 
C2       C      0.561599     0.8209       0.664399    -0.274 
C1       C      0.541499     0.3221       0.1577       0.848 
C1       C      0.0415002    0.8221       0.1577       0.848 
C1       C      0.0415002    0.3221       0.6577       0.848 
C1       C      0.541499     0.8221       0.6577       0.848 
C3       C      0.2092       0.0161003    0.0899998    0.11  
C3       C      0.7092       0.5161       0.0899998    0.11  
C3       C      0.7092       0.0161003    0.590001     0.11  
C3       C      0.2092       0.5161       0.590001     0.11  
C2       C      0.2225       0.00260062   0.0865995   -0.274 
C2       C      0.7225       0.5026       0.0865995   -0.274 
C2       C      0.7225       0.00260062   0.5866      -0.274 
C2       C      0.2225       0.5026       0.5866      -0.274 
C1       C      0.716201     0.486299     0.0776002    0.848 
C1       C      0.2162       0.9863       0.0776002    0.848 
C1       C      0.2162       0.486299     0.5776       0.848 
C1       C      0.716201     0.9863       0.5776       0.848 
C2       C      0.6481       0.422599     0.0469003   -0.274 
C2       C      0.1481       0.9226       0.0469003   -0.274 
C2       C      0.1481       0.422599     0.5469      -0.274 
C2       C      0.6481       0.9226       0.5469      -0.274 
C3       C      0.6449       0.4115       0.0311004    0.11  
C3       C      0.1449       0.911499     0.0311004    0.11  
C3       C      0.1449       0.4115       0.5311       0.11  
C3       C      0.6449       0.911499     0.5311       0.11  
C2       C      0.6361       0.3934       0.0344006   -0.274 
C2       C      0.1361       0.893401     0.0344006   -0.274 
C2       C      0.1361       0.3934       0.5344      -0.274 
C2       C      0.6361       0.893401     0.5344      -0.274 
C3       C      0.6298       0.3884       0.0528998    0.11  
C3       C      0.129801     0.8884       0.0528998    0.11  
C3       C      0.129801     0.3884       0.552901     0.11  
C3       C      0.6298       0.8884       0.552901     0.11  
C2       C      0.6301       0.4022       0.0674995   -0.274 
C2       C      0.1301       0.9022       0.0674995   -0.274 
C2       C      0.1301       0.4022       0.5675      -0.274 
C2       C      0.6301       0.9022       0.5675      -0.274 
C3       C      0.6362       0.4203       0.0627002    0.11  
C3       C      0.136201     0.9203       0.0627002    0.11  
C3       C      0.136201     0.4203       0.562699     0.11  
C3       C      0.6362       0.9203       0.562699     0.11  
C1       C      0.622999     0.3987       0.0863005    0.848 
C1       C      0.123        0.898701     0.0863005    0.848 
C1       C      0.123        0.3987       0.5863       0.848 
C1       C      0.622999     0.898701     0.5863       0.848 
C1       C      0.6392       0.3785       0.0217006    0.848 
C1       C      0.1392       0.878501     0.0217006    0.848 
C1       C      0.1392       0.3785       0.5217       0.848 
C1       C      0.6392       0.878501     0.5217       0.848 
C1       C      0.6614       0.437301     0.0475998    0.848 
C1       C      0.1614       0.9373       0.0475998    0.848 
C1       C      0.1614       0.437301     0.547601     0.848 
C1       C      0.6614       0.9373       0.547601     0.848 
C2       C      0.710901     0.3712       0.0153006   -0.274 
C2       C      0.2109       0.871199     0.0153006   -0.274 
C2       C      0.2109       0.3712       0.5153      -0.274 
C2       C      0.710901     0.871199     0.5153      -0.274 
C3       C      0.7093       0.3934       0.0175994    0.11  
C3       C      0.209301     0.893401     0.0175994    0.11  
C3       C      0.209301     0.3934       0.5176       0.11  
C3       C      0.7093       0.893401     0.5176       0.11  
C1       C      0.1396       0.3019       0.4995       0.848 
C1       C      0.6396       0.8019       0.4995       0.848 
C1       C      0.6396       0.3019       0.999499     0.848 
C1       C      0.1396       0.8019       0.999499     0.848 
H1       H      0.679432     0.431991     0.117892     0.1   
H1       H      0.179433     0.931992     0.117892     0.1   
H1       H      0.179433     0.431991     0.617893     0.1   
H1       H      0.679432     0.931992     0.617893     0.1   
H1       H      0.733061     0.416675     0.100955     0.1   
H1       H      0.233061     0.916676     0.100955     0.1   
H1       H      0.233061     0.416675     0.600954     0.1   
H1       H      0.733061     0.916676     0.600954     0.1   
H1       H      0.613287     0.332232     0.177804     0.1   
H1       H      0.113286     0.832231     0.177804     0.1   
H1       H      0.113286     0.332232     0.677804     0.1   
H1       H      0.613287     0.832231     0.677804     0.1   
H1       H      0.625261     0.373888     0.194221     0.1   
H1       H      0.12526      0.873888     0.194221     0.1   
H1       H      0.12526      0.373888     0.69422      0.1   
H1       H      0.625261     0.873888     0.69422      0.1   
H1       H      0.194082     0.0121733    0.0907295    0.1   
H1       H      0.694082     0.512173     0.0907295    0.1   
H1       H      0.694082     0.0121733    0.59073      0.1   
H1       H      0.194082     0.512173     0.59073      0.1   
H1       H      0.699147     0.40084      0.0100719    0.1   
H1       H      0.199148     0.900839     0.0100719    0.1   
H1       H      0.199148     0.40084      0.510071     0.1   
H1       H      0.699147     0.900839     0.510071     0.1   
Cr1      Cr     0.5226       0.453399     0.1952       1.859 
Cr1      Cr     0.0226004    0.9534       0.1952       1.859 
Cr1      Cr     0.0226004    0.453399     0.695199     1.859 
Cr1      Cr     0.5226       0.9534       0.695199     1.859 
Cr2      Cr     0.619701     0.339999     0.2364       1.62  
Cr2      Cr     0.1197       0.84         0.2364       1.62  
Cr2      Cr     0.1197       0.339999     0.736401     1.62  
Cr2      Cr     0.619701     0.84         0.736401     1.62  
O3       O      0.0671004    0.0437003    0.154299    -0.587 
O3       O      0.5671       0.5437       0.154299    -0.587 
O3       O      0.5671       0.0437003    0.6543      -0.587 
O3       O      0.0671004    0.5437       0.6543      -0.587 
O3       O      0.0855996    0.0650004    0.1347      -0.587 
O3       O      0.5856       0.565        0.1347      -0.587 
O3       O      0.5856       0.0650004    0.634699    -0.587 
O3       O      0.0855996    0.565        0.634699    -0.587 
O2       O      0.6265       0.4115       0.1517      -0.731 
O2       O      0.1265       0.911499     0.1517      -0.731 
O2       O      0.1265       0.4115       0.651699    -0.731 
O2       O      0.6265       0.911499     0.651699    -0.731 
O2       O      0.6499       0.3487       0.1216      -0.731 
O2       O      0.1499       0.8487       0.1216      -0.731 
O2       O      0.1499       0.3487       0.6216      -0.731 
O2       O      0.6499       0.8487       0.6216      -0.731 
O2       O      0.634601     0.3839       0.159599    -0.731 
O2       O      0.1346       0.883899     0.159599    -0.731 
O2       O      0.1346       0.3839       0.6596      -0.731 
O2       O      0.634601     0.883899     0.6596      -0.731 
O2       O      0.550899     0.4823       0.1736      -0.731 
O2       O      0.0509       0.9823       0.1736      -0.731 
O2       O      0.0509       0.4823       0.6736      -0.731 
O2       O      0.550899     0.9823       0.6736      -0.731 
O2       O      0.589099     0.448099     0.1886      -0.731 
O2       O      0.0891       0.9481       0.1886      -0.731 
O2       O      0.0891       0.448099     0.6886      -0.731 
O2       O      0.589099     0.9481       0.6886      -0.731 
O2       O      0.522        0.473401     0.177601    -0.731 
O2       O      0.0219997    0.9734       0.177601    -0.731 
O2       O      0.0219997    0.473401     0.6776      -0.731 
O2       O      0.522        0.9734       0.6776      -0.731 
O2       O      0.0342003    0.0121006    0.2777      -0.731 
O2       O      0.5342       0.5121       0.2777      -0.731 
O2       O      0.5342       0.0121006    0.777701    -0.731 
O2       O      0.0342003    0.5121       0.777701    -0.731 
O2       O      0.5247       0.4302       0.2038      -0.731 
O2       O      0.0247004    0.9302       0.2038      -0.731 
O2       O      0.0247004    0.4302       0.7038      -0.731 
O2       O      0.5247       0.9302       0.7038      -0.731 
O3       O      0.5761       0.440501     0.2153      -0.587 
O3       O      0.0760997    0.9405       0.2153      -0.587 
O3       O      0.0760997    0.440501     0.715299    -0.587 
O3       O      0.5761       0.9405       0.715299    -0.587 
O2       O      0.5916       0.3033       0.2513      -0.731 
O2       O      0.0916005    0.803301     0.2513      -0.731 
O2       O      0.0916005    0.3033       0.751301    -0.731 
O2       O      0.5916       0.803301     0.751301    -0.731 
O2       O      0.722601     0.3203       0.0801995   -0.731 
O2       O      0.2226       0.820299     0.0801995   -0.731 
O2       O      0.2226       0.3203       0.5802      -0.731 
O2       O      0.722601     0.820299     0.5802      -0.731 
O3       O      0.618799     0.313399     0.240101    -0.587 
O3       O      0.1188       0.8134       0.240101    -0.587 
O3       O      0.1188       0.313399     0.7401      -0.587 
O3       O      0.618799     0.8134       0.7401      -0.587 
O3       O      0.7118       0.329201     0.1093      -0.587 
O3       O      0.2118       0.8292       0.1093      -0.587 
O3       O      0.2118       0.329201     0.609299    -0.587 
O3       O      0.7118       0.8292       0.609299    -0.587 
O3       O      0.6184       0.3634       0.225       -0.587 
O3       O      0.1184       0.8634       0.225       -0.587 
O3       O      0.1184       0.3634       0.725       -0.587 
O3       O      0.6184       0.8634       0.725       -0.587 
O2       O      0.6015       0.3816       0.2432      -0.731 
O2       O      0.1015       0.8816       0.2432      -0.731 
O2       O      0.1015       0.3816       0.7432      -0.731 
O2       O      0.6015       0.8816       0.7432      -0.731 
F1       F      0.6425       0.334501     0.2257      -0.566 
F1       F      0.142501     0.8345       0.2257      -0.566 
F1       F      0.142501     0.334501     0.7257      -0.566 
F1       F      0.6425       0.8345       0.7257      -0.566 
C3       C      0.674999     0.3317       0.0989004    0.11  
C3       C      0.175        0.8317       0.0989004    0.11  
C3       C      0.175        0.3317       0.5989       0.11  
C3       C      0.674999     0.8317       0.5989       0.11  
C2       C      0.6884       0.320899     0.0855996   -0.274 
C2       C      0.1884       0.8209       0.0855996   -0.274 
C2       C      0.1884       0.320899     0.5856      -0.274 
C2       C      0.6884       0.8209       0.5856      -0.274 
C1       C      0.7085       0.3221       0.0923001    0.848 
C1       C      0.208499     0.8221       0.0923001    0.848 
C1       C      0.208499     0.3221       0.592299     0.848 
C1       C      0.7085       0.8221       0.592299     0.848 
C3       C      0.0408007    0.0161003    0.16         0.11  
C3       C      0.5408       0.5161       0.16         0.11  
C3       C      0.5408       0.0161003    0.660001     0.11  
C3       C      0.0408007    0.5161       0.660001     0.11  
C2       C      0.0274999    0.00260062   0.1634      -0.274 
C2       C      0.527501     0.5026       0.1634      -0.274 
C2       C      0.527501     0.00260062   0.663399    -0.274 
C2       C      0.0274999    0.5026       0.663399    -0.274 
C1       C      0.533801     0.486299     0.172399     0.848 
C1       C      0.0337998    0.9863       0.172399     0.848 
C1       C      0.0337998    0.486299     0.6724       0.848 
C1       C      0.533801     0.9863       0.6724       0.848 
C2       C      0.601899     0.422599     0.203099    -0.274 
C2       C      0.1019       0.9226       0.203099    -0.274 
C2       C      0.1019       0.422599     0.7031      -0.274 
C2       C      0.601899     0.9226       0.7031      -0.274 
C3       C      0.605099     0.4115       0.218901     0.11  
C3       C      0.1051       0.911499     0.218901     0.11  
C3       C      0.1051       0.4115       0.7189       0.11  
C3       C      0.605099     0.911499     0.7189       0.11  
C2       C      0.6139       0.3934       0.2156      -0.274 
C2       C      0.113901     0.893401     0.2156      -0.274 
C2       C      0.113901     0.3934       0.7156      -0.274 
C2       C      0.6139       0.893401     0.7156      -0.274 
C3       C      0.6202       0.3884       0.1971       0.11  
C3       C      0.1202       0.8884       0.1971       0.11  
C3       C      0.1202       0.3884       0.697101     0.11  
C3       C      0.6202       0.8884       0.697101     0.11  
C2       C      0.619899     0.4022       0.1825      -0.274 
C2       C      0.1199       0.9022       0.1825      -0.274 
C2       C      0.1199       0.4022       0.682499    -0.274 
C2       C      0.619899     0.9022       0.682499    -0.274 
C3       C      0.6138       0.4203       0.187299     0.11  
C3       C      0.1138       0.9203       0.187299     0.11  
C3       C      0.1138       0.4203       0.6873       0.11  
C3       C      0.6138       0.9203       0.6873       0.11  
C1       C      0.627        0.3987       0.163701     0.848 
C1       C      0.127        0.898701     0.163701     0.848 
C1       C      0.127        0.3987       0.6637       0.848 
C1       C      0.627        0.898701     0.6637       0.848 
C1       C      0.6108       0.3785       0.2283       0.848 
C1       C      0.110801     0.878501     0.2283       0.848 
C1       C      0.110801     0.3785       0.7283       0.848 
C1       C      0.6108       0.878501     0.7283       0.848 
C1       C      0.5886       0.437301     0.2024       0.848 
C1       C      0.0885994    0.9373       0.2024       0.848 
C1       C      0.0885994    0.437301     0.7024       0.848 
C1       C      0.5886       0.9373       0.7024       0.848 
C2       C      0.539101     0.3712       0.2347      -0.274 
C2       C      0.0390998    0.871199     0.2347      -0.274 
C2       C      0.0390998    0.3712       0.7347      -0.274 
C2       C      0.539101     0.871199     0.7347      -0.274 
C3       C      0.5407       0.3934       0.2324       0.11  
C3       C      0.0407005    0.893401     0.2324       0.11  
C3       C      0.0407005    0.3934       0.7324       0.11  
C3       C      0.5407       0.893401     0.7324       0.11  
C1       C      0.610399     0.3019       0.2505       0.848 
C1       C      0.1104       0.8019       0.2505       0.848 
C1       C      0.1104       0.3019       0.7505       0.848 
C1       C      0.610399     0.8019       0.7505       0.848 
H1       H      0.570567     0.431991     0.132108     0.1   
H1       H      0.0705665    0.931992     0.132108     0.1   
H1       H      0.0705665    0.431991     0.632108     0.1   
H1       H      0.570567     0.931992     0.632108     0.1   
H1       H      0.516939     0.416675     0.149046     0.1   
H1       H      0.0169397    0.916676     0.149046     0.1   
H1       H      0.0169397    0.416675     0.649045     0.1   
H1       H      0.516939     0.916676     0.649045     0.1   
H1       H      0.636714     0.332232     0.072196     0.1   
H1       H      0.136714     0.832231     0.072196     0.1   
H1       H      0.136714     0.332232     0.572197     0.1   
H1       H      0.636714     0.832231     0.572197     0.1   
H1       H      0.62474      0.373888     0.0557803    0.1   
H1       H      0.124739     0.873888     0.0557803    0.1   
H1       H      0.124739     0.373888     0.55578      0.1   
H1       H      0.62474      0.873888     0.55578      0.1   
H1       H      0.0559174    0.0121733    0.15927      0.1   
H1       H      0.555918     0.512173     0.15927      0.1   
H1       H      0.555918     0.0121733    0.659271     0.1   
H1       H      0.0559174    0.512173     0.659271     0.1   
H1       H      0.550853     0.40084      0.239929     0.1   
H1       H      0.050852     0.900839     0.239929     0.1   
H1       H      0.050852     0.40084      0.739928     0.1   
H1       H      0.550853     0.900839     0.739928     0.1   
Cr2      Cr     0.2966       0.1952       0.227401     1.62  
Cr2      Cr     0.7966       0.695199     0.227401     1.62  
Cr2      Cr     0.7966       0.1952       0.7274       1.62  
Cr2      Cr     0.2966       0.695199     0.7274       1.62  
Cr1      Cr     0.409999     0.2364       0.1303       1.859 
Cr1      Cr     0.91         0.736401     0.1303       1.859 
Cr1      Cr     0.91         0.2364       0.630301     1.859 
Cr1      Cr     0.409999     0.736401     0.630301     1.859 
O2       O      0.206299     0.154299     0.182901    -0.731 
O2       O      0.7063       0.6543       0.182901    -0.731 
O2       O      0.7063       0.154299     0.6829      -0.731 
O2       O      0.206299     0.6543       0.6829      -0.731 
O2       O      0.185001     0.1347       0.1644      -0.731 
O2       O      0.685        0.634699     0.1644      -0.731 
O2       O      0.685        0.1347       0.664399    -0.731 
O2       O      0.185001     0.634699     0.664399    -0.731 
O2       O      0.3385       0.1517       0.123501    -0.731 
O2       O      0.8385       0.651699     0.123501    -0.731 
O2       O      0.8385       0.1517       0.6235      -0.731 
O2       O      0.3385       0.651699     0.6235      -0.731 
O3       O      0.401301     0.1216       0.100101    -0.587 
O3       O      0.9013       0.6216       0.100101    -0.587 
O3       O      0.9013       0.1216       0.6001      -0.587 
O3       O      0.401301     0.6216       0.6001      -0.587 
O3       O      0.3661       0.159599     0.1154      -0.587 
O3       O      0.8661       0.6596       0.1154      -0.587 
O3       O      0.8661       0.159599     0.6154      -0.587 
O3       O      0.3661       0.6596       0.6154      -0.587 
O2       O      0.267701     0.1736       0.1991      -0.731 
O2       O      0.7677       0.6736       0.1991      -0.731 
O2       O      0.7677       0.1736       0.6991      -0.731 
O2       O      0.267701     0.6736       0.6991      -0.731 
O2       O      0.3019       0.1886       0.1609      -0.731 
O2       O      0.8019       0.6886       0.1609      -0.731 
O2       O      0.8019       0.1886       0.6609      -0.731 
O2       O      0.3019       0.6886       0.6609      -0.731 
O3       O      0.2766       0.177601     0.228       -0.587 
O3       O      0.7766       0.6776       0.228       -0.587 
O3       O      0.7766       0.177601     0.728001    -0.587 
O3       O      0.2766       0.6776       0.728001    -0.587 
O3       O      0.2379       0.2777       0.215799    -0.587 
O3       O      0.7379       0.777701     0.215799    -0.587 
O3       O      0.7379       0.2777       0.7158      -0.587 
O3       O      0.2379       0.777701     0.7158      -0.587 
O3       O      0.319799     0.2038       0.225301    -0.587 
O3       O      0.8198       0.7038       0.225301    -0.587 
O3       O      0.8198       0.2038       0.7253      -0.587 
O3       O      0.319799     0.7038       0.7253      -0.587 
O2       O      0.3095       0.2153       0.1739      -0.731 
O2       O      0.8095       0.715299     0.1739      -0.731 
O2       O      0.8095       0.2153       0.673901    -0.731 
O2       O      0.3095       0.715299     0.673901    -0.731 
O2       O      0.4467       0.2513       0.158401    -0.731 
O2       O      0.9467       0.751301     0.158401    -0.731 
O2       O      0.9467       0.2513       0.6584      -0.731 
O2       O      0.4467       0.751301     0.6584      -0.731 
O2       O      0.4297       0.0801995    0.0273998   -0.731 
O2       O      0.9297       0.5802       0.0273998   -0.731 
O2       O      0.9297       0.0801995    0.5274      -0.731 
O2       O      0.4297       0.5802       0.5274      -0.731 
O2       O      0.4366       0.240101     0.1312      -0.731 
O2       O      0.9366       0.7401       0.1312      -0.731 
O2       O      0.9366       0.240101     0.6312      -0.731 
O2       O      0.4366       0.7401       0.6312      -0.731 
O2       O      0.4208       0.1093       0.0382      -0.731 
O2       O      0.9208       0.609299     0.0382      -0.731 
O2       O      0.9208       0.1093       0.538199    -0.731 
O2       O      0.4208       0.609299     0.538199    -0.731 
O2       O      0.386599     0.225        0.1316      -0.731 
O2       O      0.8866       0.725        0.1316      -0.731 
O2       O      0.8866       0.225        0.631599    -0.731 
O2       O      0.386599     0.725        0.631599    -0.731 
O3       O      0.368401     0.2432       0.1485      -0.587 
O3       O      0.8684       0.7432       0.1485      -0.587 
O3       O      0.8684       0.2432       0.648499    -0.587 
O3       O      0.368401     0.7432       0.648499    -0.587 
F1       F      0.301699     0.1848       0.2514      -0.566 
F1       F      0.8017       0.6848       0.2514      -0.566 
F1       F      0.8017       0.1848       0.751399    -0.566 
F1       F      0.301699     0.6848       0.751399    -0.566 
C3       C      0.418301     0.0989004    0.0749996    0.11  
C3       C      0.9183       0.5989       0.0749996    0.11  
C3       C      0.9183       0.0989004    0.575        0.11  
C3       C      0.418301     0.5989       0.575        0.11  
C2       C      0.4291       0.0855996    0.0616001   -0.274 
C2       C      0.9291       0.5856       0.0616001   -0.274 
C2       C      0.9291       0.0855996    0.561599    -0.274 
C2       C      0.4291       0.5856       0.561599    -0.274 
C1       C      0.427901     0.0923001    0.0415002    0.848 
C1       C      0.9279       0.592299     0.0415002    0.848 
C1       C      0.9279       0.0923001    0.541499     0.848 
C1       C      0.427901     0.592299     0.541499     0.848 
C3       C      0.233899     0.16         0.2092       0.11  
C3       C      0.7339       0.660001     0.2092       0.11  
C3       C      0.7339       0.16         0.7092       0.11  
C3       C      0.233899     0.660001     0.7092       0.11  
C2       C      0.2474       0.1634       0.2225      -0.274 
C2       C      0.7474       0.663399     0.2225      -0.274 
C2       C      0.7474       0.1634       0.7225      -0.274 
C2       C      0.2474       0.663399     0.7225      -0.274 
C1       C      0.2637       0.172399     0.2162       0.848 
C1       C      0.7637       0.6724       0.2162       0.848 
C1       C      0.7637       0.172399     0.716201     0.848 
C1       C      0.2637       0.6724       0.716201     0.848 
C2       C      0.3274       0.203099     0.1481      -0.274 
C2       C      0.8274       0.7031       0.1481      -0.274 
C2       C      0.8274       0.203099     0.6481      -0.274 
C2       C      0.3274       0.7031       0.6481      -0.274 
C3       C      0.3385       0.218901     0.1449       0.11  
C3       C      0.8385       0.7189       0.1449       0.11  
C3       C      0.8385       0.218901     0.6449       0.11  
C3       C      0.3385       0.7189       0.6449       0.11  
C2       C      0.3566       0.2156       0.1361      -0.274 
C2       C      0.8566       0.7156       0.1361      -0.274 
C2       C      0.8566       0.2156       0.6361      -0.274 
C2       C      0.3566       0.7156       0.6361      -0.274 
C3       C      0.3616       0.1971       0.129801     0.11  
C3       C      0.861601     0.697101     0.129801     0.11  
C3       C      0.861601     0.1971       0.6298       0.11  
C3       C      0.3616       0.697101     0.6298       0.11  
C2       C      0.3478       0.1825       0.1301      -0.274 
C2       C      0.847801     0.682499     0.1301      -0.274 
C2       C      0.847801     0.1825       0.6301      -0.274 
C2       C      0.3478       0.682499     0.6301      -0.274 
C3       C      0.3297       0.187299     0.136201     0.11  
C3       C      0.829701     0.6873       0.136201     0.11  
C3       C      0.829701     0.187299     0.6362       0.11  
C3       C      0.3297       0.6873       0.6362       0.11  
C1       C      0.3513       0.163701     0.123        0.848 
C1       C      0.8513       0.6637       0.123        0.848 
C1       C      0.8513       0.163701     0.622999     0.848 
C1       C      0.3513       0.6637       0.622999     0.848 
C1       C      0.3715       0.2283       0.1392       0.848 
C1       C      0.8715       0.7283       0.1392       0.848 
C1       C      0.8715       0.2283       0.6392       0.848 
C1       C      0.3715       0.7283       0.6392       0.848 
C1       C      0.3127       0.2024       0.1614       0.848 
C1       C      0.812701     0.7024       0.1614       0.848 
C1       C      0.812701     0.2024       0.6614       0.848 
C1       C      0.3127       0.7024       0.6614       0.848 
C2       C      0.3788       0.2347       0.2109      -0.274 
C2       C      0.8788       0.7347       0.2109      -0.274 
C2       C      0.8788       0.2347       0.710901    -0.274 
C2       C      0.3788       0.7347       0.710901    -0.274 
C3       C      0.3566       0.2324       0.209301     0.11  
C3       C      0.8566       0.7324       0.209301     0.11  
C3       C      0.8566       0.2324       0.7093       0.11  
C3       C      0.3566       0.7324       0.7093       0.11  
C1       C      0.448099     0.2505       0.1396       0.848 
C1       C      0.9481       0.7505       0.1396       0.848 
C1       C      0.9481       0.2505       0.6396       0.848 
C1       C      0.448099     0.7505       0.6396       0.848 
H1       H      0.318008     0.132108     0.179433     0.1   
H1       H      0.818009     0.632108     0.179433     0.1   
H1       H      0.818009     0.132108     0.679432     0.1   
H1       H      0.318008     0.632108     0.679432     0.1   
H1       H      0.333324     0.149046     0.233061     0.1   
H1       H      0.833324     0.649045     0.233061     0.1   
H1       H      0.833324     0.149046     0.733061     0.1   
H1       H      0.333324     0.649045     0.733061     0.1   
H1       H      0.146176     0.188032     0.104484     0.1   
H1       H      0.646177     0.688031     0.104484     0.1   
H1       H      0.646177     0.188032     0.604484     0.1   
H1       H      0.146176     0.688031     0.604484     0.1   
H1       H      0.417768     0.072196     0.113286     0.1   
H1       H      0.917769     0.572197     0.113286     0.1   
H1       H      0.917769     0.072196     0.613287     0.1   
H1       H      0.417768     0.572197     0.613287     0.1   
H1       H      0.445187     0.0603766    0.0600104    0.1   
H1       H      0.945188     0.560376     0.0600104    0.1   
H1       H      0.945188     0.0603766    0.560011     0.1   
H1       H      0.445187     0.560376     0.560011     0.1   
H1       H      0.376112     0.0557803    0.12526      0.1   
H1       H      0.876113     0.55578      0.12526      0.1   
H1       H      0.876113     0.0557803    0.625261     0.1   
H1       H      0.376112     0.55578      0.625261     0.1   
H1       H      0.237828     0.15927      0.194082     0.1   
H1       H      0.737827     0.659271     0.194082     0.1   
H1       H      0.737827     0.15927      0.694082     0.1   
H1       H      0.237828     0.659271     0.694082     0.1   
H1       H      0.349161     0.239929     0.199148     0.1   
H1       H      0.84916      0.739928     0.199148     0.1   
H1       H      0.84916      0.239929     0.699147     0.1   
H1       H      0.349161     0.739928     0.699147     0.1   
Cr1      Cr     0.2966       0.0547996    0.0226004    1.859 
Cr1      Cr     0.7966       0.5548       0.0226004    1.859 
Cr1      Cr     0.7966       0.0547996    0.5226       1.859 
Cr1      Cr     0.2966       0.5548       0.5226       1.859 
Cr1      Cr     0.409999     0.0135998    0.1197       1.859 
Cr1      Cr     0.91         0.5136       0.1197       1.859 
Cr1      Cr     0.91         0.0135998    0.619701     1.859 
Cr1      Cr     0.409999     0.5136       0.619701     1.859 
O2       O      0.206299     0.0957003    0.0671004   -0.731 
O2       O      0.7063       0.5957       0.0671004   -0.731 
O2       O      0.7063       0.0957003    0.5671      -0.731 
O2       O      0.206299     0.5957       0.5671      -0.731 
O2       O      0.185001     0.1153       0.0855996   -0.731 
O2       O      0.685        0.6153       0.0855996   -0.731 
O2       O      0.685        0.1153       0.5856      -0.731 
O2       O      0.185001     0.6153       0.5856      -0.731 
O2       O      0.3385       0.0982996    0.1265      -0.731 
O2       O      0.8385       0.5983       0.1265      -0.731 
O2       O      0.8385       0.0982996    0.6265      -0.731 
O2       O      0.3385       0.5983       0.6265      -0.731 
O2       O      0.401301     0.1284       0.1499      -0.731 
O2       O      0.9013       0.628399     0.1499      -0.731 
O2       O      0.9013       0.1284       0.6499      -0.731 
O2       O      0.401301     0.628399     0.6499      -0.731 
O2       O      0.3661       0.0904003    0.1346      -0.731 
O2       O      0.8661       0.5904       0.1346      -0.731 
O2       O      0.8661       0.0904003    0.634601    -0.731 
O2       O      0.3661       0.5904       0.634601    -0.731 
O3       O      0.267701     0.0764001    0.0509      -0.587 
O3       O      0.7677       0.576399     0.0509      -0.587 
O3       O      0.7677       0.0764001    0.550899    -0.587 
O3       O      0.267701     0.576399     0.550899    -0.587 
O3       O      0.3019       0.0613999    0.0891      -0.587 
O3       O      0.8019       0.561401     0.0891      -0.587 
O3       O      0.8019       0.0613999    0.589099    -0.587 
O3       O      0.3019       0.561401     0.589099    -0.587 
O2       O      0.2766       0.0724004    0.0219997   -0.731 
O2       O      0.7766       0.5724       0.0219997   -0.731 
O2       O      0.7766       0.0724004    0.522       -0.731 
O2       O      0.2766       0.5724       0.522       -0.731 
O3       O      0.7379       0.472301     0.0342003   -0.587 
O3       O      0.2379       0.9723       0.0342003   -0.587 
O3       O      0.2379       0.472301     0.5342      -0.587 
O3       O      0.7379       0.9723       0.5342      -0.587 
O2       O      0.319799     0.0461994    0.0247004   -0.731 
O2       O      0.8198       0.5462       0.0247004   -0.731 
O2       O      0.8198       0.0461994    0.5247      -0.731 
O2       O      0.319799     0.5462       0.5247      -0.731 
O2       O      0.3095       0.0346996    0.0760997   -0.731 
O2       O      0.8095       0.5347       0.0760997   -0.731 
O2       O      0.8095       0.0346996    0.5761      -0.731 
O2       O      0.3095       0.5347       0.5761      -0.731 
O3       O      0.9467       0.4987       0.0916005   -0.587 
O3       O      0.4467       0.9987       0.0916005   -0.587 
O3       O      0.4467       0.4987       0.5916      -0.587 
O3       O      0.9467       0.9987       0.5916      -0.587 
O3       O      0.4297       0.1698       0.2226      -0.587 
O3       O      0.9297       0.669799     0.2226      -0.587 
O3       O      0.9297       0.1698       0.722601    -0.587 
O3       O      0.4297       0.669799     0.722601    -0.587 
O2       O      0.4366       0.00990046   0.1188      -0.731 
O2       O      0.9366       0.5099       0.1188      -0.731 
O2       O      0.9366       0.00990046   0.618799    -0.731 
O2       O      0.4366       0.5099       0.618799    -0.731 
O2       O      0.4208       0.1407       0.2118      -0.731 
O2       O      0.9208       0.6407       0.2118      -0.731 
O2       O      0.9208       0.1407       0.7118      -0.731 
O2       O      0.4208       0.6407       0.7118      -0.731 
O2       O      0.386599     0.0249994    0.1184      -0.731 
O2       O      0.8866       0.525        0.1184      -0.731 
O2       O      0.8866       0.0249994    0.6184      -0.731 
O2       O      0.386599     0.525        0.6184      -0.731 
O2       O      0.368401     0.00680057   0.1015      -0.731 
O2       O      0.8684       0.5068       0.1015      -0.731 
O2       O      0.8684       0.00680057   0.6015      -0.731 
O2       O      0.368401     0.5068       0.6015      -0.731 
C3       C      0.418301     0.151101     0.175        0.11  
C3       C      0.9183       0.6511       0.175        0.11  
C3       C      0.9183       0.151101     0.674999     0.11  
C3       C      0.418301     0.6511       0.674999     0.11  
C2       C      0.4291       0.1644       0.1884      -0.274 
C2       C      0.9291       0.664399     0.1884      -0.274 
C2       C      0.9291       0.1644       0.6884      -0.274 
C2       C      0.4291       0.664399     0.6884      -0.274 
C1       C      0.427901     0.1577       0.208499     0.848 
C1       C      0.9279       0.6577       0.208499     0.848 
C1       C      0.9279       0.1577       0.7085       0.848 
C1       C      0.427901     0.6577       0.7085       0.848 
C3       C      0.233899     0.0899998    0.0408007    0.11  
C3       C      0.7339       0.590001     0.0408007    0.11  
C3       C      0.7339       0.0899998    0.5408       0.11  
C3       C      0.233899     0.590001     0.5408       0.11  
C2       C      0.2474       0.0865995    0.0274999   -0.274 
C2       C      0.7474       0.5866       0.0274999   -0.274 
C2       C      0.7474       0.0865995    0.527501    -0.274 
C2       C      0.2474       0.5866       0.527501    -0.274 
C1       C      0.2637       0.0776002    0.0337998    0.848 
C1       C      0.7637       0.5776       0.0337998    0.848 
C1       C      0.7637       0.0776002    0.533801     0.848 
C1       C      0.2637       0.5776       0.533801     0.848 
C2       C      0.3274       0.0469003    0.1019      -0.274 
C2       C      0.8274       0.5469       0.1019      -0.274 
C2       C      0.8274       0.0469003    0.601899    -0.274 
C2       C      0.3274       0.5469       0.601899    -0.274 
C3       C      0.3385       0.0311004    0.1051       0.11  
C3       C      0.8385       0.5311       0.1051       0.11  
C3       C      0.8385       0.0311004    0.605099     0.11  
C3       C      0.3385       0.5311       0.605099     0.11  
C2       C      0.3566       0.0344006    0.113901    -0.274 
C2       C      0.8566       0.5344       0.113901    -0.274 
C2       C      0.8566       0.0344006    0.6139      -0.274 
C2       C      0.3566       0.5344       0.6139      -0.274 
C3       C      0.3616       0.0528998    0.1202       0.11  
C3       C      0.861601     0.552901     0.1202       0.11  
C3       C      0.861601     0.0528998    0.6202       0.11  
C3       C      0.3616       0.552901     0.6202       0.11  
C2       C      0.3478       0.0674995    0.1199      -0.274 
C2       C      0.847801     0.5675       0.1199      -0.274 
C2       C      0.847801     0.0674995    0.619899    -0.274 
C2       C      0.3478       0.5675       0.619899    -0.274 
C3       C      0.3297       0.0627002    0.1138       0.11  
C3       C      0.829701     0.562699     0.1138       0.11  
C3       C      0.829701     0.0627002    0.6138       0.11  
C3       C      0.3297       0.562699     0.6138       0.11  
C1       C      0.3513       0.0863005    0.127        0.848 
C1       C      0.8513       0.5863       0.127        0.848 
C1       C      0.8513       0.0863005    0.627        0.848 
C1       C      0.3513       0.5863       0.627        0.848 
C1       C      0.3715       0.0217006    0.110801     0.848 
C1       C      0.8715       0.5217       0.110801     0.848 
C1       C      0.8715       0.0217006    0.6108       0.848 
C1       C      0.3715       0.5217       0.6108       0.848 
C1       C      0.3127       0.0475998    0.0885994    0.848 
C1       C      0.812701     0.547601     0.0885994    0.848 
C1       C      0.812701     0.0475998    0.5886       0.848 
C1       C      0.3127       0.547601     0.5886       0.848 
C2       C      0.3788       0.0153006    0.0390998   -0.274 
C2       C      0.8788       0.5153       0.0390998   -0.274 
C2       C      0.8788       0.0153006    0.539101    -0.274 
C2       C      0.3788       0.5153       0.539101    -0.274 
C3       C      0.3566       0.0175994    0.0407005    0.11  
C3       C      0.8566       0.5176       0.0407005    0.11  
C3       C      0.8566       0.0175994    0.5407       0.11  
C3       C      0.3566       0.5176       0.5407       0.11  
C1       C      0.9481       0.4995       0.1104       0.848 
C1       C      0.448099     0.999499     0.1104       0.848 
C1       C      0.448099     0.4995       0.610399     0.848 
C1       C      0.9481       0.999499     0.610399     0.848 
H1       H      0.318008     0.117892     0.0705665    0.1   
H1       H      0.818009     0.617893     0.0705665    0.1   
H1       H      0.818009     0.117892     0.570567     0.1   
H1       H      0.318008     0.617893     0.570567     0.1   
H1       H      0.333324     0.100955     0.0169397    0.1   
H1       H      0.833324     0.600954     0.0169397    0.1   
H1       H      0.833324     0.100955     0.516939     0.1   
H1       H      0.333324     0.600954     0.516939     0.1   
H1       H      0.146176     0.0619677    0.145517     0.1   
H1       H      0.646177     0.561968     0.145517     0.1   
H1       H      0.646177     0.0619677    0.645516     0.1   
H1       H      0.146176     0.561968     0.645516     0.1   
H1       H      0.417768     0.177804     0.136714     0.1   
H1       H      0.917769     0.677804     0.136714     0.1   
H1       H      0.917769     0.177804     0.636714     0.1   
H1       H      0.417768     0.677804     0.636714     0.1   
H1       H      0.376112     0.194221     0.124739     0.1   
H1       H      0.876113     0.69422      0.124739     0.1   
H1       H      0.876113     0.194221     0.62474      0.1   
H1       H      0.376112     0.69422      0.62474      0.1   
H1       H      0.237828     0.0907295    0.0559174    0.1   
H1       H      0.737827     0.59073      0.0559174    0.1   
H1       H      0.737827     0.0907295    0.555918     0.1   
H1       H      0.237828     0.59073      0.555918     0.1   
H1       H      0.349161     0.0100719    0.050852     0.1   
H1       H      0.84916      0.510071     0.050852     0.1   
H1       H      0.84916      0.0100719    0.550853     0.1   
H1       H      0.349161     0.510071     0.550853     0.1   
Cr1      Cr     0.9534       0.1952       0.0226004    1.859 
Cr1      Cr     0.453399     0.695199     0.0226004    1.859 
Cr1      Cr     0.453399     0.1952       0.5226       1.859 
Cr1      Cr     0.9534       0.695199     0.5226       1.859 
Cr1      Cr     0.84         0.2364       0.1197       1.859 
Cr1      Cr     0.339999     0.736401     0.1197       1.859 
Cr1      Cr     0.339999     0.2364       0.619701     1.859 
Cr1      Cr     0.84         0.736401     0.619701     1.859 
O2       O      0.0437003    0.154299     0.0671004   -0.731 
O2       O      0.5437       0.6543       0.0671004   -0.731 
O2       O      0.5437       0.154299     0.5671      -0.731 
O2       O      0.0437003    0.6543       0.5671      -0.731 
O2       O      0.0650004    0.1347       0.0855996   -0.731 
O2       O      0.565        0.634699     0.0855996   -0.731 
O2       O      0.565        0.1347       0.5856      -0.731 
O2       O      0.0650004    0.634699     0.5856      -0.731 
O2       O      0.911499     0.1517       0.1265      -0.731 
O2       O      0.4115       0.651699     0.1265      -0.731 
O2       O      0.4115       0.1517       0.6265      -0.731 
O2       O      0.911499     0.651699     0.6265      -0.731 
O3       O      0.8487       0.1216       0.1499      -0.587 
O3       O      0.3487       0.6216       0.1499      -0.587 
O3       O      0.3487       0.1216       0.6499      -0.587 
O3       O      0.8487       0.6216       0.6499      -0.587 
O3       O      0.883899     0.159599     0.1346      -0.587 
O3       O      0.3839       0.6596       0.1346      -0.587 
O3       O      0.3839       0.159599     0.634601    -0.587 
O3       O      0.883899     0.6596       0.634601    -0.587 
O2       O      0.9823       0.1736       0.0509      -0.731 
O2       O      0.4823       0.6736       0.0509      -0.731 
O2       O      0.4823       0.1736       0.550899    -0.731 
O2       O      0.9823       0.6736       0.550899    -0.731 
O2       O      0.9481       0.1886       0.0891      -0.731 
O2       O      0.448099     0.6886       0.0891      -0.731 
O2       O      0.448099     0.1886       0.589099    -0.731 
O2       O      0.9481       0.6886       0.589099    -0.731 
O2       O      0.9734       0.177601     0.0219997   -0.731 
O2       O      0.473401     0.6776       0.0219997   -0.731 
O2       O      0.473401     0.177601     0.522       -0.731 
O2       O      0.9734       0.6776       0.522       -0.731 
O2       O      0.0121006    0.2777       0.0342003   -0.731 
O2       O      0.5121       0.777701     0.0342003   -0.731 
O2       O      0.5121       0.2777       0.5342      -0.731 
O2       O      0.0121006    0.777701     0.5342      -0.731 
O2       O      0.9302       0.2038       0.0247004   -0.731 
O2       O      0.4302       0.7038       0.0247004   -0.731 
O2       O      0.4302       0.2038       0.5247      -0.731 
O2       O      0.9302       0.7038       0.5247      -0.731 
O3       O      0.9405       0.2153       0.0760997   -0.587 
O3       O      0.440501     0.715299     0.0760997   -0.587 
O3       O      0.440501     0.2153       0.5761      -0.587 
O3       O      0.9405       0.715299     0.5761      -0.587 
O3       O      0.803301     0.2513       0.0916005   -0.587 
O3       O      0.3033       0.751301     0.0916005   -0.587 
O3       O      0.3033       0.2513       0.5916      -0.587 
O3       O      0.803301     0.751301     0.5916      -0.587 
O3       O      0.820299     0.0801995    0.2226      -0.587 
O3       O      0.3203       0.5802       0.2226      -0.587 
O3       O      0.3203       0.0801995    0.722601    -0.587 
O3       O      0.820299     0.5802       0.722601    -0.587 
O2       O      0.8134       0.240101     0.1188      -0.731 
O2       O      0.313399     0.7401       0.1188      -0.731 
O2       O      0.313399     0.240101     0.618799    -0.731 
O2       O      0.8134       0.7401       0.618799    -0.731 
O2       O      0.8292       0.1093       0.2118      -0.731 
O2       O      0.329201     0.609299     0.2118      -0.731 
O2       O      0.329201     0.1093       0.7118      -0.731 
O2       O      0.8292       0.609299     0.7118      -0.731 
O2       O      0.8634       0.225        0.1184      -0.731 
O2       O      0.3634       0.725        0.1184      -0.731 
O2       O      0.3634       0.225        0.6184      -0.731 
O2       O      0.8634       0.725        0.6184      -0.731 
O2       O      0.8816       0.2432       0.1015      -0.731 
O2       O      0.3816       0.7432       0.1015      -0.731 
O2       O      0.3816       0.2432       0.6015      -0.731 
O2       O      0.8816       0.7432       0.6015      -0.731 
C3       C      0.8317       0.0989004    0.175        0.11  
C3       C      0.3317       0.5989       0.175        0.11  
C3       C      0.3317       0.0989004    0.674999     0.11  
C3       C      0.8317       0.5989       0.674999     0.11  
C2       C      0.8209       0.0855996    0.1884      -0.274 
C2       C      0.320899     0.5856       0.1884      -0.274 
C2       C      0.320899     0.0855996    0.6884      -0.274 
C2       C      0.8209       0.5856       0.6884      -0.274 
C1       C      0.8221       0.0923001    0.208499     0.848 
C1       C      0.3221       0.592299     0.208499     0.848 
C1       C      0.3221       0.0923001    0.7085       0.848 
C1       C      0.8221       0.592299     0.7085       0.848 
C3       C      0.0161003    0.16         0.0408007    0.11  
C3       C      0.5161       0.660001     0.0408007    0.11  
C3       C      0.5161       0.16         0.5408       0.11  
C3       C      0.0161003    0.660001     0.5408       0.11  
C2       C      0.00260062   0.1634       0.0274999   -0.274 
C2       C      0.5026       0.663399     0.0274999   -0.274 
C2       C      0.5026       0.1634       0.527501    -0.274 
C2       C      0.00260062   0.663399     0.527501    -0.274 
C1       C      0.9863       0.172399     0.0337998    0.848 
C1       C      0.486299     0.6724       0.0337998    0.848 
C1       C      0.486299     0.172399     0.533801     0.848 
C1       C      0.9863       0.6724       0.533801     0.848 
C2       C      0.9226       0.203099     0.1019      -0.274 
C2       C      0.422599     0.7031       0.1019      -0.274 
C2       C      0.422599     0.203099     0.601899    -0.274 
C2       C      0.9226       0.7031       0.601899    -0.274 
C3       C      0.911499     0.218901     0.1051       0.11  
C3       C      0.4115       0.7189       0.1051       0.11  
C3       C      0.4115       0.218901     0.605099     0.11  
C3       C      0.911499     0.7189       0.605099     0.11  
C2       C      0.893401     0.2156       0.113901    -0.274 
C2       C      0.3934       0.7156       0.113901    -0.274 
C2       C      0.3934       0.2156       0.6139      -0.274 
C2       C      0.893401     0.7156       0.6139      -0.274 
C3       C      0.8884       0.1971       0.1202       0.11  
C3       C      0.3884       0.697101     0.1202       0.11  
C3       C      0.3884       0.1971       0.6202       0.11  
C3       C      0.8884       0.697101     0.6202       0.11  
C2       C      0.9022       0.1825       0.1199      -0.274 
C2       C      0.4022       0.682499     0.1199      -0.274 
C2       C      0.4022       0.1825       0.619899    -0.274 
C2       C      0.9022       0.682499     0.619899    -0.274 
C3       C      0.9203       0.187299     0.1138       0.11  
C3       C      0.4203       0.6873       0.1138       0.11  
C3       C      0.4203       0.187299     0.6138       0.11  
C3       C      0.9203       0.6873       0.6138       0.11  
C1       C      0.898701     0.163701     0.127        0.848 
C1       C      0.3987       0.6637       0.127        0.848 
C1       C      0.3987       0.163701     0.627        0.848 
C1       C      0.898701     0.6637       0.627        0.848 
C1       C      0.878501     0.2283       0.110801     0.848 
C1       C      0.3785       0.7283       0.110801     0.848 
C1       C      0.3785       0.2283       0.6108       0.848 
C1       C      0.878501     0.7283       0.6108       0.848 
C1       C      0.9373       0.2024       0.0885994    0.848 
C1       C      0.437301     0.7024       0.0885994    0.848 
C1       C      0.437301     0.2024       0.5886       0.848 
C1       C      0.9373       0.7024       0.5886       0.848 
C2       C      0.871199     0.2347       0.0390998   -0.274 
C2       C      0.3712       0.7347       0.0390998   -0.274 
C2       C      0.3712       0.2347       0.539101    -0.274 
C2       C      0.871199     0.7347       0.539101    -0.274 
C3       C      0.893401     0.2324       0.0407005    0.11  
C3       C      0.3934       0.7324       0.0407005    0.11  
C3       C      0.3934       0.2324       0.5407       0.11  
C3       C      0.893401     0.7324       0.5407       0.11  
C1       C      0.8019       0.2505       0.1104       0.848 
C1       C      0.3019       0.7505       0.1104       0.848 
C1       C      0.3019       0.2505       0.610399     0.848 
C1       C      0.8019       0.7505       0.610399     0.848 
H1       H      0.931992     0.132108     0.0705665    0.1   
H1       H      0.431991     0.632108     0.0705665    0.1   
H1       H      0.431991     0.132108     0.570567     0.1   
H1       H      0.931992     0.632108     0.570567     0.1   
H1       H      0.916676     0.149046     0.0169397    0.1   
H1       H      0.416675     0.649045     0.0169397    0.1   
H1       H      0.416675     0.149046     0.516939     0.1   
H1       H      0.916676     0.649045     0.516939     0.1   
H1       H      0.832231     0.072196     0.136714     0.1   
H1       H      0.332232     0.572197     0.136714     0.1   
H1       H      0.332232     0.072196     0.636714     0.1   
H1       H      0.832231     0.572197     0.636714     0.1   
H1       H      0.873888     0.0557803    0.124739     0.1   
H1       H      0.373888     0.55578      0.124739     0.1   
H1       H      0.373888     0.0557803    0.62474      0.1   
H1       H      0.873888     0.55578      0.62474      0.1   
H1       H      0.0121733    0.15927      0.0559174    0.1   
H1       H      0.512173     0.659271     0.0559174    0.1   
H1       H      0.512173     0.15927      0.555918     0.1   
H1       H      0.0121733    0.659271     0.555918     0.1   
H1       H      0.900839     0.239929     0.050852     0.1   
H1       H      0.40084      0.739928     0.050852     0.1   
H1       H      0.40084      0.239929     0.550853     0.1   
H1       H      0.900839     0.739928     0.550853     0.1   
Cr1      Cr     0.9534       0.0547996    0.227401     1.859 
Cr1      Cr     0.453399     0.5548       0.227401     1.859 
Cr1      Cr     0.453399     0.0547996    0.7274       1.859 
Cr1      Cr     0.9534       0.5548       0.7274       1.859 
Cr1      Cr     0.84         0.0135998    0.1303       1.859 
Cr1      Cr     0.339999     0.5136       0.1303       1.859 
Cr1      Cr     0.339999     0.0135998    0.630301     1.859 
Cr1      Cr     0.84         0.5136       0.630301     1.859 
O2       O      0.0437003    0.0957003    0.182901    -0.731 
O2       O      0.5437       0.5957       0.182901    -0.731 
O2       O      0.5437       0.0957003    0.6829      -0.731 
O2       O      0.0437003    0.5957       0.6829      -0.731 
O2       O      0.0650004    0.1153       0.1644      -0.731 
O2       O      0.565        0.6153       0.1644      -0.731 
O2       O      0.565        0.1153       0.664399    -0.731 
O2       O      0.0650004    0.6153       0.664399    -0.731 
O2       O      0.911499     0.0982996    0.123501    -0.731 
O2       O      0.4115       0.5983       0.123501    -0.731 
O2       O      0.4115       0.0982996    0.6235      -0.731 
O2       O      0.911499     0.5983       0.6235      -0.731 
O2       O      0.8487       0.1284       0.100101    -0.731 
O2       O      0.3487       0.628399     0.100101    -0.731 
O2       O      0.3487       0.1284       0.6001      -0.731 
O2       O      0.8487       0.628399     0.6001      -0.731 
O2       O      0.883899     0.0904003    0.1154      -0.731 
O2       O      0.3839       0.5904       0.1154      -0.731 
O2       O      0.3839       0.0904003    0.6154      -0.731 
O2       O      0.883899     0.5904       0.6154      -0.731 
O3       O      0.9823       0.0764001    0.1991      -0.587 
O3       O      0.4823       0.576399     0.1991      -0.587 
O3       O      0.4823       0.0764001    0.6991      -0.587 
O3       O      0.9823       0.576399     0.6991      -0.587 
O3       O      0.9481       0.0613999    0.1609      -0.587 
O3       O      0.448099     0.561401     0.1609      -0.587 
O3       O      0.448099     0.0613999    0.6609      -0.587 
O3       O      0.9481       0.561401     0.6609      -0.587 
O2       O      0.9734       0.0724004    0.228       -0.731 
O2       O      0.473401     0.5724       0.228       -0.731 
O2       O      0.473401     0.0724004    0.728001    -0.731 
O2       O      0.9734       0.5724       0.728001    -0.731 
O2       O      0.5121       0.472301     0.215799    -0.731 
O2       O      0.0121006    0.9723       0.215799    -0.731 
O2       O      0.0121006    0.472301     0.7158      -0.731 
O2       O      0.5121       0.9723       0.7158      -0.731 
O2       O      0.9302       0.0461994    0.225301    -0.731 
O2       O      0.4302       0.5462       0.225301    -0.731 
O2       O      0.4302       0.0461994    0.7253      -0.731 
O2       O      0.9302       0.5462       0.7253      -0.731 
O2       O      0.9405       0.0346996    0.1739      -0.731 
O2       O      0.440501     0.5347       0.1739      -0.731 
O2       O      0.440501     0.0346996    0.673901    -0.731 
O2       O      0.9405       0.5347       0.673901    -0.731 
O2       O      0.3033       0.4987       0.158401    -0.731 
O2       O      0.803301     0.9987       0.158401    -0.731 
O2       O      0.803301     0.4987       0.6584      -0.731 
O2       O      0.3033       0.9987       0.6584      -0.731 
O2       O      0.820299     0.1698       0.0273998   -0.731 
O2       O      0.3203       0.669799     0.0273998   -0.731 
O2       O      0.3203       0.1698       0.5274      -0.731 
O2       O      0.820299     0.669799     0.5274      -0.731 
O2       O      0.8134       0.00990046   0.1312      -0.731 
O2       O      0.313399     0.5099       0.1312      -0.731 
O2       O      0.313399     0.00990046   0.6312      -0.731 
O2       O      0.8134       0.5099       0.6312      -0.731 
O2       O      0.8292       0.1407       0.0382      -0.731 
O2       O      0.329201     0.6407       0.0382      -0.731 
O2       O      0.329201     0.1407       0.538199    -0.731 
O2       O      0.8292       0.6407       0.538199    -0.731 
O2       O      0.8634       0.0249994    0.1316      -0.731 
O2       O      0.3634       0.525        0.1316      -0.731 
O2       O      0.3634       0.0249994    0.631599    -0.731 
O2       O      0.8634       0.525        0.631599    -0.731 
O3       O      0.8816       0.00680057   0.1485      -0.587 
O3       O      0.3816       0.5068       0.1485      -0.587 
O3       O      0.3816       0.00680057   0.648499    -0.587 
O3       O      0.8816       0.5068       0.648499    -0.587 
C3       C      0.8317       0.151101     0.0749996    0.11  
C3       C      0.3317       0.6511       0.0749996    0.11  
C3       C      0.3317       0.151101     0.575        0.11  
C3       C      0.8317       0.6511       0.575        0.11  
C2       C      0.8209       0.1644       0.0616001   -0.274 
C2       C      0.320899     0.664399     0.0616001   -0.274 
C2       C      0.320899     0.1644       0.561599    -0.274 
C2       C      0.8209       0.664399     0.561599    -0.274 
C1       C      0.8221       0.1577       0.0415002    0.848 
C1       C      0.3221       0.6577       0.0415002    0.848 
C1       C      0.3221       0.1577       0.541499     0.848 
C1       C      0.8221       0.6577       0.541499     0.848 
C3       C      0.0161003    0.0899998    0.2092       0.11  
C3       C      0.5161       0.590001     0.2092       0.11  
C3       C      0.5161       0.0899998    0.7092       0.11  
C3       C      0.0161003    0.590001     0.7092       0.11  
C2       C      0.00260062   0.0865995    0.2225      -0.274 
C2       C      0.5026       0.5866       0.2225      -0.274 
C2       C      0.5026       0.0865995    0.7225      -0.274 
C2       C      0.00260062   0.5866       0.7225      -0.274 
C1       C      0.9863       0.0776002    0.2162       0.848 
C1       C      0.486299     0.5776       0.2162       0.848 
C1       C      0.486299     0.0776002    0.716201     0.848 
C1       C      0.9863       0.5776       0.716201     0.848 
C2       C      0.9226       0.0469003    0.1481      -0.274 
C2       C      0.422599     0.5469       0.1481      -0.274 
C2       C      0.422599     0.0469003    0.6481      -0.274 
C2       C      0.9226       0.5469       0.6481      -0.274 
C3       C      0.911499     0.0311004    0.1449       0.11  
C3       C      0.4115       0.5311       0.1449       0.11  
C3       C      0.4115       0.0311004    0.6449       0.11  
C3       C      0.911499     0.5311       0.6449       0.11  
C2       C      0.893401     0.0344006    0.1361      -0.274 
C2       C      0.3934       0.5344       0.1361      -0.274 
C2       C      0.3934       0.0344006    0.6361      -0.274 
C2       C      0.893401     0.5344       0.6361      -0.274 
C3       C      0.8884       0.0528998    0.129801     0.11  
C3       C      0.3884       0.552901     0.129801     0.11  
C3       C      0.3884       0.0528998    0.6298       0.11  
C3       C      0.8884       0.552901     0.6298       0.11  
C2       C      0.9022       0.0674995    0.1301      -0.274 
C2       C      0.4022       0.5675       0.1301      -0.274 
C2       C      0.4022       0.0674995    0.6301      -0.274 
C2       C      0.9022       0.5675       0.6301      -0.274 
C3       C      0.9203       0.0627002    0.136201     0.11  
C3       C      0.4203       0.562699     0.136201     0.11  
C3       C      0.4203       0.0627002    0.6362       0.11  
C3       C      0.9203       0.562699     0.6362       0.11  
C1       C      0.898701     0.0863005    0.123        0.848 
C1       C      0.3987       0.5863       0.123        0.848 
C1       C      0.3987       0.0863005    0.622999     0.848 
C1       C      0.898701     0.5863       0.622999     0.848 
C1       C      0.878501     0.0217006    0.1392       0.848 
C1       C      0.3785       0.5217       0.1392       0.848 
C1       C      0.3785       0.0217006    0.6392       0.848 
C1       C      0.878501     0.5217       0.6392       0.848 
C1       C      0.9373       0.0475998    0.1614       0.848 
C1       C      0.437301     0.547601     0.1614       0.848 
C1       C      0.437301     0.0475998    0.6614       0.848 
C1       C      0.9373       0.547601     0.6614       0.848 
C2       C      0.871199     0.0153006    0.2109      -0.274 
C2       C      0.3712       0.5153       0.2109      -0.274 
C2       C      0.3712       0.0153006    0.710901    -0.274 
C2       C      0.871199     0.5153       0.710901    -0.274 
C3       C      0.893401     0.0175994    0.209301     0.11  
C3       C      0.3934       0.5176       0.209301     0.11  
C3       C      0.3934       0.0175994    0.7093       0.11  
C3       C      0.893401     0.5176       0.7093       0.11  
C1       C      0.3019       0.4995       0.1396       0.848 
C1       C      0.8019       0.999499     0.1396       0.848 
C1       C      0.8019       0.4995       0.6396       0.848 
C1       C      0.3019       0.999499     0.6396       0.848 
H1       H      0.931992     0.117892     0.179433     0.1   
H1       H      0.431991     0.617893     0.179433     0.1   
H1       H      0.431991     0.117892     0.679432     0.1   
H1       H      0.931992     0.617893     0.679432     0.1   
H1       H      0.916676     0.100955     0.233061     0.1   
H1       H      0.416675     0.600954     0.233061     0.1   
H1       H      0.416675     0.100955     0.733061     0.1   
H1       H      0.916676     0.600954     0.733061     0.1   
H1       H      0.832231     0.177804     0.113286     0.1   
H1       H      0.332232     0.677804     0.113286     0.1   
H1       H      0.332232     0.177804     0.613287     0.1   
H1       H      0.832231     0.677804     0.613287     0.1   
H1       H      0.873888     0.194221     0.12526      0.1   
H1       H      0.373888     0.69422      0.12526      0.1   
H1       H      0.373888     0.194221     0.625261     0.1   
H1       H      0.873888     0.69422      0.625261     0.1   
H1       H      0.0121733    0.0907295    0.194082     0.1   
H1       H      0.512173     0.59073      0.194082     0.1   
H1       H      0.512173     0.0907295    0.694082     0.1   
H1       H      0.0121733    0.59073      0.694082     0.1   
H1       H      0.900839     0.0100719    0.199148     0.1   
H1       H      0.40084      0.510071     0.199148     0.1   
H1       H      0.40084      0.0100719    0.699147     0.1   
H1       H      0.900839     0.510071     0.699147     0.1   
Cr1      Cr     0.1601       0.0898997    0.0568995    1.859 
Cr1      Cr     0.660101     0.5899       0.0568995    1.859 
Cr1      Cr     0.660101     0.0898997    0.5569       1.859 
Cr1      Cr     0.1601       0.5899       0.5569       1.859 
Cr1      Cr     0.682        0.0680002    0.4634       1.859 
Cr1      Cr     0.181999     0.567999     0.4634       1.859 
Cr1      Cr     0.181999     0.0680002    0.963401     1.859 
Cr1      Cr     0.682        0.567999     0.963401     1.859 
O1       O      0.5494       0.2006       0.455       -1.28  
O1       O      0.0493994    0.7006       0.455       -1.28  
O1       O      0.0493994    0.2006       0.954999    -1.28  
O1       O      0.5494       0.7006       0.954999    -1.28  
C2       C      0.59245      0.15755      0.341901    -0.274 
C2       C      0.0924496    0.657549     0.341901    -0.274 
C2       C      0.0924496    0.15755      0.8419      -0.274 
C2       C      0.59245      0.657549     0.8419      -0.274 
C3       C      0.5681       0.181899     0.314301     0.11  
C3       C      0.0681003    0.6819       0.314301     0.11  
C3       C      0.0681003    0.181899     0.8143       0.11  
C3       C      0.5681       0.6819       0.8143       0.11  
C1       C      0.604999     0.145        0.3491       0.848 
C1       C      0.105        0.645        0.3491       0.848 
C1       C      0.105        0.145        0.8491       0.848 
C1       C      0.604999     0.645        0.8491       0.848 
C3       C      0.719599     0.0303995    0.3614       0.11  
C3       C      0.2196       0.5304       0.3614       0.11  
C3       C      0.2196       0.0303995    0.8614       0.11  
C3       C      0.719599     0.5304       0.8614       0.11  
C2       C      0.7208       0.0291994    0.403499    -0.274 
C2       C      0.2208       0.5292       0.403499    -0.274 
C2       C      0.2208       0.0291994    0.9035      -0.274 
C2       C      0.7208       0.5292       0.9035      -0.274 
C1       C      0.717499     0.0324995    0.422501     0.848 
C1       C      0.2175       0.5325       0.422501     0.848 
C1       C      0.2175       0.0324995    0.9225       0.848 
C1       C      0.717499     0.5325       0.9225       0.848 
Cr1      Cr     0.0898997    0.1601       0.0568995    1.859 
Cr1      Cr     0.5899       0.660101     0.0568995    1.859 
Cr1      Cr     0.5899       0.1601       0.5569       1.859 
Cr1      Cr     0.0898997    0.660101     0.5569       1.859 
Cr2      Cr     0.567999     0.181999     0.4634       1.62  
Cr2      Cr     0.0680002    0.682        0.4634       1.62  
Cr2      Cr     0.0680002    0.181999     0.963401     1.62  
Cr2      Cr     0.567999     0.682        0.963401     1.62  
O1       O      0.7006       0.0493994    0.455       -1.28  
O1       O      0.2006       0.5494       0.455       -1.28  
O1       O      0.2006       0.0493994    0.954999    -1.28  
O1       O      0.7006       0.5494       0.954999    -1.28  
F1       F      0.5834       0.1666       0.4793      -0.566 
F1       F      0.0833995    0.666599     0.4793      -0.566 
F1       F      0.0833995    0.1666       0.979301    -0.566 
F1       F      0.5834       0.666599     0.979301    -0.566 
C2       C      0.657549     0.0924496    0.341901    -0.274 
C2       C      0.15755      0.59245      0.341901    -0.274 
C2       C      0.15755      0.0924496    0.8419      -0.274 
C2       C      0.657549     0.59245      0.8419      -0.274 
C3       C      0.6819       0.0681003    0.314301     0.11  
C3       C      0.181899     0.5681       0.314301     0.11  
C3       C      0.181899     0.0681003    0.8143       0.11  
C3       C      0.6819       0.5681       0.8143       0.11  
C1       C      0.645        0.105        0.3491       0.848 
C1       C      0.145        0.604999     0.3491       0.848 
C1       C      0.145        0.105        0.8491       0.848 
C1       C      0.645        0.604999     0.8491       0.848 
C3       C      0.5304       0.2196       0.3614       0.11  
C3       C      0.0303995    0.719599     0.3614       0.11  
C3       C      0.0303995    0.2196       0.8614       0.11  
C3       C      0.5304       0.719599     0.8614       0.11  
C2       C      0.5292       0.2208       0.403499    -0.274 
C2       C      0.0291994    0.7208       0.403499    -0.274 
C2       C      0.0291994    0.2208       0.9035      -0.274 
C2       C      0.5292       0.7208       0.9035      -0.274 
C1       C      0.5325       0.2175       0.422501     0.848 
C1       C      0.0324995    0.717499     0.422501     0.848 
C1       C      0.0324995    0.2175       0.9225       0.848 
C1       C      0.5325       0.717499     0.9225       0.848 
Cr1      Cr     0.0898997    0.0898997    0.1931       1.859 
Cr1      Cr     0.5899       0.5899       0.1931       1.859 
Cr1      Cr     0.5899       0.0898997    0.693099     1.859 
Cr1      Cr     0.0898997    0.5899       0.693099     1.859 
Cr2      Cr     0.0680002    0.0680002    0.2866       1.62  
Cr2      Cr     0.567999     0.567999     0.2866       1.62  
Cr2      Cr     0.567999     0.0680002    0.7866       1.62  
Cr2      Cr     0.0680002    0.567999     0.7866       1.62  
O1       O      0.2006       0.2006       0.295       -1.28  
O1       O      0.7006       0.7006       0.295       -1.28  
O1       O      0.7006       0.2006       0.795       -1.28  
O1       O      0.2006       0.7006       0.795       -1.28  
F1       F      0.0833995    0.0833995    0.2707      -0.566 
F1       F      0.5834       0.5834       0.2707      -0.566 
F1       F      0.5834       0.0833995    0.7707      -0.566 
F1       F      0.0833995    0.5834       0.7707      -0.566 
C2       C      0.15755      0.15755      0.4081      -0.274 
C2       C      0.657549     0.657549     0.4081      -0.274 
C2       C      0.657549     0.15755      0.9081      -0.274 
C2       C      0.15755      0.657549     0.9081      -0.274 
C3       C      0.181899     0.181899     0.4357       0.11  
C3       C      0.6819       0.6819       0.4357       0.11  
C3       C      0.6819       0.181899     0.935701     0.11  
C3       C      0.181899     0.6819       0.935701     0.11  
C1       C      0.145        0.145        0.4009       0.848 
C1       C      0.645        0.645        0.4009       0.848 
C1       C      0.645        0.145        0.900899     0.848 
C1       C      0.145        0.645        0.900899     0.848 
C3       C      0.0303995    0.0303995    0.388601     0.11  
C3       C      0.5304       0.5304       0.388601     0.11  
C3       C      0.5304       0.0303995    0.8886       0.11  
C3       C      0.0303995    0.5304       0.8886       0.11  
C2       C      0.0291994    0.0291994    0.3465      -0.274 
C2       C      0.5292       0.5292       0.3465      -0.274 
C2       C      0.5292       0.0291994    0.8465      -0.274 
C2       C      0.0291994    0.5292       0.8465      -0.274 
C1       C      0.0324995    0.0324995    0.3275       0.848 
C1       C      0.5325       0.5325       0.3275       0.848 
C1       C      0.5325       0.0324995    0.8275       0.848 
C1       C      0.0324995    0.5325       0.8275       0.848 
Cr2      Cr     0.1601       0.1601       0.1931       1.62  
Cr2      Cr     0.660101     0.660101     0.1931       1.62  
Cr2      Cr     0.660101     0.1601       0.693099     1.62  
Cr2      Cr     0.1601       0.660101     0.693099     1.62  
Cr1      Cr     0.181999     0.181999     0.2866       1.859 
Cr1      Cr     0.682        0.682        0.2866       1.859 
Cr1      Cr     0.682        0.181999     0.7866       1.859 
Cr1      Cr     0.181999     0.682        0.7866       1.859 
O1       O      0.0493994    0.0493994    0.295       -1.28  
O1       O      0.5494       0.5494       0.295       -1.28  
O1       O      0.5494       0.0493994    0.795       -1.28  
O1       O      0.0493994    0.5494       0.795       -1.28  
F1       F      0.1464       0.1464       0.211599    -0.566 
F1       F      0.646399     0.646399     0.211599    -0.566 
F1       F      0.646399     0.1464       0.7116      -0.566 
F1       F      0.1464       0.646399     0.7116      -0.566 
C2       C      0.0924496    0.0924496    0.4081      -0.274 
C2       C      0.59245      0.59245      0.4081      -0.274 
C2       C      0.59245      0.0924496    0.9081      -0.274 
C2       C      0.0924496    0.59245      0.9081      -0.274 
C3       C      0.0681003    0.0681003    0.4357       0.11  
C3       C      0.5681       0.5681       0.4357       0.11  
C3       C      0.5681       0.0681003    0.935701     0.11  
C3       C      0.0681003    0.5681       0.935701     0.11  
C1       C      0.105        0.105        0.4009       0.848 
C1       C      0.604999     0.604999     0.4009       0.848 
C1       C      0.604999     0.105        0.900899     0.848 
C1       C      0.105        0.604999     0.900899     0.848 
C3       C      0.2196       0.2196       0.388601     0.11  
C3       C      0.719599     0.719599     0.388601     0.11  
C3       C      0.719599     0.2196       0.8886       0.11  
C3       C      0.2196       0.719599     0.8886       0.11  
C2       C      0.2208       0.2208       0.3465      -0.274 
C2       C      0.7208       0.7208       0.3465      -0.274 
C2       C      0.7208       0.2208       0.8465      -0.274 
C2       C      0.2208       0.7208       0.8465      -0.274 
C1       C      0.2175       0.2175       0.3275       0.848 
C1       C      0.717499     0.717499     0.3275       0.848 
C1       C      0.717499     0.2175       0.8275       0.848 
C1       C      0.2175       0.717499     0.8275       0.848 
Cr1      Cr     0.0568995    0.1601       0.0898997    1.859 
Cr1      Cr     0.5569       0.660101     0.0898997    1.859 
Cr1      Cr     0.5569       0.1601       0.5899       1.859 
Cr1      Cr     0.0568995    0.660101     0.5899       1.859 
Cr1      Cr     0.963401     0.181999     0.0680002    1.859 
Cr1      Cr     0.4634       0.682        0.0680002    1.859 
Cr1      Cr     0.4634       0.181999     0.567999     1.859 
Cr1      Cr     0.963401     0.682        0.567999     1.859 
O1       O      0.954999     0.0493994    0.2006      -1.28  
O1       O      0.455        0.5494       0.2006      -1.28  
O1       O      0.455        0.0493994    0.7006      -1.28  
O1       O      0.954999     0.5494       0.7006      -1.28  
C2       C      0.8419       0.0924496    0.15755     -0.274 
C2       C      0.341901     0.59245      0.15755     -0.274 
C2       C      0.341901     0.0924496    0.657549    -0.274 
C2       C      0.8419       0.59245      0.657549    -0.274 
C3       C      0.8143       0.0681003    0.181899     0.11  
C3       C      0.314301     0.5681       0.181899     0.11  
C3       C      0.314301     0.0681003    0.6819       0.11  
C3       C      0.8143       0.5681       0.6819       0.11  
C1       C      0.8491       0.105        0.145        0.848 
C1       C      0.3491       0.604999     0.145        0.848 
C1       C      0.3491       0.105        0.645        0.848 
C1       C      0.8491       0.604999     0.645        0.848 
C3       C      0.8614       0.2196       0.0303995    0.11  
C3       C      0.3614       0.719599     0.0303995    0.11  
C3       C      0.3614       0.2196       0.5304       0.11  
C3       C      0.8614       0.719599     0.5304       0.11  
C2       C      0.9035       0.2208       0.0291994   -0.274 
C2       C      0.403499     0.7208       0.0291994   -0.274 
C2       C      0.403499     0.2208       0.5292      -0.274 
C2       C      0.9035       0.7208       0.5292      -0.274 
C1       C      0.9225       0.2175       0.0324995    0.848 
C1       C      0.422501     0.717499     0.0324995    0.848 
C1       C      0.422501     0.2175       0.5325       0.848 
C1       C      0.9225       0.717499     0.5325       0.848 
Cr1      Cr     0.0568995    0.0898997    0.1601       1.859 
Cr1      Cr     0.5569       0.5899       0.1601       1.859 
Cr1      Cr     0.5569       0.0898997    0.660101     1.859 
Cr1      Cr     0.0568995    0.5899       0.660101     1.859 
Cr2      Cr     0.963401     0.0680002    0.181999     1.62  
Cr2      Cr     0.4634       0.567999     0.181999     1.62  
Cr2      Cr     0.4634       0.0680002    0.682        1.62  
Cr2      Cr     0.963401     0.567999     0.682        1.62  
O1       O      0.954999     0.2006       0.0493994   -1.28  
O1       O      0.455        0.7006       0.0493994   -1.28  
O1       O      0.455        0.2006       0.5494      -1.28  
O1       O      0.954999     0.7006       0.5494      -1.28  
F1       F      0.979301     0.0833995    0.1666      -0.566 
F1       F      0.4793       0.5834       0.1666      -0.566 
F1       F      0.4793       0.0833995    0.666599    -0.566 
F1       F      0.979301     0.5834       0.666599    -0.566 
C2       C      0.8419       0.15755      0.0924496   -0.274 
C2       C      0.341901     0.657549     0.0924496   -0.274 
C2       C      0.341901     0.15755      0.59245     -0.274 
C2       C      0.8419       0.657549     0.59245     -0.274 
C3       C      0.8143       0.181899     0.0681003    0.11  
C3       C      0.314301     0.6819       0.0681003    0.11  
C3       C      0.314301     0.181899     0.5681       0.11  
C3       C      0.8143       0.6819       0.5681       0.11  
C1       C      0.8491       0.145        0.105        0.848 
C1       C      0.3491       0.645        0.105        0.848 
C1       C      0.3491       0.145        0.604999     0.848 
C1       C      0.8491       0.645        0.604999     0.848 
C3       C      0.8614       0.0303995    0.2196       0.11  
C3       C      0.3614       0.5304       0.2196       0.11  
C3       C      0.3614       0.0303995    0.719599     0.11  
C3       C      0.8614       0.5304       0.719599     0.11  
C2       C      0.9035       0.0291994    0.2208      -0.274 
C2       C      0.403499     0.5292       0.2208      -0.274 
C2       C      0.403499     0.0291994    0.7208      -0.274 
C2       C      0.9035       0.5292       0.7208      -0.274 
C1       C      0.9225       0.0324995    0.2175       0.848 
C1       C      0.422501     0.5325       0.2175       0.848 
C1       C      0.422501     0.0324995    0.717499     0.848 
C1       C      0.9225       0.5325       0.717499     0.848 
Cr1      Cr     0.1931       0.0898997    0.0898997    1.859 
Cr1      Cr     0.693099     0.5899       0.0898997    1.859 
Cr1      Cr     0.693099     0.0898997    0.5899       1.859 
Cr1      Cr     0.1931       0.5899       0.5899       1.859 
Cr2      Cr     0.2866       0.0680002    0.0680002    1.62  
Cr2      Cr     0.7866       0.567999     0.0680002    1.62  
Cr2      Cr     0.7866       0.0680002    0.567999     1.62  
Cr2      Cr     0.2866       0.567999     0.567999     1.62  
O1       O      0.295        0.2006       0.2006      -1.28  
O1       O      0.795        0.7006       0.2006      -1.28  
O1       O      0.795        0.2006       0.7006      -1.28  
O1       O      0.295        0.7006       0.7006      -1.28  
F1       F      0.2707       0.0833995    0.0833995   -0.566 
F1       F      0.7707       0.5834       0.0833995   -0.566 
F1       F      0.7707       0.0833995    0.5834      -0.566 
F1       F      0.2707       0.5834       0.5834      -0.566 
C2       C      0.4081       0.15755      0.15755     -0.274 
C2       C      0.9081       0.657549     0.15755     -0.274 
C2       C      0.9081       0.15755      0.657549    -0.274 
C2       C      0.4081       0.657549     0.657549    -0.274 
C3       C      0.4357       0.181899     0.181899     0.11  
C3       C      0.935701     0.6819       0.181899     0.11  
C3       C      0.935701     0.181899     0.6819       0.11  
C3       C      0.4357       0.6819       0.6819       0.11  
C1       C      0.4009       0.145        0.145        0.848 
C1       C      0.900899     0.645        0.145        0.848 
C1       C      0.900899     0.145        0.645        0.848 
C1       C      0.4009       0.645        0.645        0.848 
C3       C      0.388601     0.0303995    0.0303995    0.11  
C3       C      0.8886       0.5304       0.0303995    0.11  
C3       C      0.8886       0.0303995    0.5304       0.11  
C3       C      0.388601     0.5304       0.5304       0.11  
C2       C      0.3465       0.0291994    0.0291994   -0.274 
C2       C      0.8465       0.5292       0.0291994   -0.274 
C2       C      0.8465       0.0291994    0.5292      -0.274 
C2       C      0.3465       0.5292       0.5292      -0.274 
C1       C      0.3275       0.0324995    0.0324995    0.848 
C1       C      0.8275       0.5325       0.0324995    0.848 
C1       C      0.8275       0.0324995    0.5325       0.848 
C1       C      0.3275       0.5325       0.5325       0.848 
Cr1      Cr     0.1931       0.1601       0.1601       1.859 
Cr1      Cr     0.693099     0.660101     0.1601       1.859 
Cr1      Cr     0.693099     0.1601       0.660101     1.859 
Cr1      Cr     0.1931       0.660101     0.660101     1.859 
Cr1      Cr     0.2866       0.181999     0.181999     1.859 
Cr1      Cr     0.7866       0.682        0.181999     1.859 
Cr1      Cr     0.7866       0.181999     0.682        1.859 
Cr1      Cr     0.2866       0.682        0.682        1.859 
O1       O      0.295        0.0493994    0.0493994   -1.28  
O1       O      0.795        0.5494       0.0493994   -1.28  
O1       O      0.795        0.0493994    0.5494      -1.28  
O1       O      0.295        0.5494       0.5494      -1.28  
C2       C      0.4081       0.0924496    0.0924496   -0.274 
C2       C      0.9081       0.59245      0.0924496   -0.274 
C2       C      0.9081       0.0924496    0.59245     -0.274 
C2       C      0.4081       0.59245      0.59245     -0.274 
C3       C      0.4357       0.0681003    0.0681003    0.11  
C3       C      0.935701     0.5681       0.0681003    0.11  
C3       C      0.935701     0.0681003    0.5681       0.11  
C3       C      0.4357       0.5681       0.5681       0.11  
C1       C      0.4009       0.105        0.105        0.848 
C1       C      0.900899     0.604999     0.105        0.848 
C1       C      0.900899     0.105        0.604999     0.848 
C1       C      0.4009       0.604999     0.604999     0.848 
C3       C      0.388601     0.2196       0.2196       0.11  
C3       C      0.8886       0.719599     0.2196       0.11  
C3       C      0.8886       0.2196       0.719599     0.11  
C3       C      0.388601     0.719599     0.719599     0.11  
C2       C      0.3465       0.2208       0.2208      -0.274 
C2       C      0.8465       0.7208       0.2208      -0.274 
C2       C      0.8465       0.2208       0.7208      -0.274 
C2       C      0.3465       0.7208       0.7208      -0.274 
C1       C      0.3275       0.2175       0.2175       0.848 
C1       C      0.8275       0.717499     0.2175       0.848 
C1       C      0.8275       0.2175       0.717499     0.848 
C1       C      0.3275       0.717499     0.717499     0.848 
Cr2      Cr     0.0898997    0.0568995    0.1601       1.62  
Cr2      Cr     0.5899       0.5569       0.1601       1.62  
Cr2      Cr     0.5899       0.0568995    0.660101     1.62  
Cr2      Cr     0.0898997    0.5569       0.660101     1.62  
Cr1      Cr     0.567999     0.4634       0.181999     1.859 
Cr1      Cr     0.0680002    0.963401     0.181999     1.859 
Cr1      Cr     0.0680002    0.4634       0.682        1.859 
Cr1      Cr     0.567999     0.963401     0.682        1.859 
O1       O      0.7006       0.455        0.0493994   -1.28  
O1       O      0.2006       0.954999     0.0493994   -1.28  
O1       O      0.2006       0.455        0.5494      -1.28  
O1       O      0.7006       0.954999     0.5494      -1.28  
F1       F      0.1036       0.0384003    0.1464      -0.566 
F1       F      0.6036       0.5384       0.1464      -0.566 
F1       F      0.6036       0.0384003    0.646399    -0.566 
F1       F      0.1036       0.5384       0.646399    -0.566 
C2       C      0.657549     0.341901     0.0924496   -0.274 
C2       C      0.15755      0.8419       0.0924496   -0.274 
C2       C      0.15755      0.341901     0.59245     -0.274 
C2       C      0.657549     0.8419       0.59245     -0.274 
C3       C      0.6819       0.314301     0.0681003    0.11  
C3       C      0.181899     0.8143       0.0681003    0.11  
C3       C      0.181899     0.314301     0.5681       0.11  
C3       C      0.6819       0.8143       0.5681       0.11  
C1       C      0.645        0.3491       0.105        0.848 
C1       C      0.145        0.8491       0.105        0.848 
C1       C      0.145        0.3491       0.604999     0.848 
C1       C      0.645        0.8491       0.604999     0.848 
C3       C      0.5304       0.3614       0.2196       0.11  
C3       C      0.0303995    0.8614       0.2196       0.11  
C3       C      0.0303995    0.3614       0.719599     0.11  
C3       C      0.5304       0.8614       0.719599     0.11  
C2       C      0.5292       0.403499     0.2208      -0.274 
C2       C      0.0291994    0.9035       0.2208      -0.274 
C2       C      0.0291994    0.403499     0.7208      -0.274 
C2       C      0.5292       0.9035       0.7208      -0.274 
C1       C      0.5325       0.422501     0.2175       0.848 
C1       C      0.0324995    0.9225       0.2175       0.848 
C1       C      0.0324995    0.422501     0.717499     0.848 
C1       C      0.5325       0.9225       0.717499     0.848 
Cr2      Cr     0.1601       0.0568995    0.0898997    1.62  
Cr2      Cr     0.660101     0.5569       0.0898997    1.62  
Cr2      Cr     0.660101     0.0568995    0.5899       1.62  
Cr2      Cr     0.1601       0.5569       0.5899       1.62  
Cr1      Cr     0.682        0.4634       0.0680002    1.859 
Cr1      Cr     0.181999     0.963401     0.0680002    1.859 
Cr1      Cr     0.181999     0.4634       0.567999     1.859 
Cr1      Cr     0.682        0.963401     0.567999     1.859 
O1       O      0.5494       0.455        0.2006      -1.28  
O1       O      0.0493994    0.954999     0.2006      -1.28  
O1       O      0.0493994    0.455        0.7006      -1.28  
O1       O      0.5494       0.954999     0.7006      -1.28  
F1       F      0.1464       0.0384003    0.1036      -0.566 
F1       F      0.646399     0.5384       0.1036      -0.566 
F1       F      0.646399     0.0384003    0.6036      -0.566 
F1       F      0.1464       0.5384       0.6036      -0.566 
C2       C      0.59245      0.341901     0.15755     -0.274 
C2       C      0.0924496    0.8419       0.15755     -0.274 
C2       C      0.0924496    0.341901     0.657549    -0.274 
C2       C      0.59245      0.8419       0.657549    -0.274 
C3       C      0.5681       0.314301     0.181899     0.11  
C3       C      0.0681003    0.8143       0.181899     0.11  
C3       C      0.0681003    0.314301     0.6819       0.11  
C3       C      0.5681       0.8143       0.6819       0.11  
C1       C      0.604999     0.3491       0.145        0.848 
C1       C      0.105        0.8491       0.145        0.848 
C1       C      0.105        0.3491       0.645        0.848 
C1       C      0.604999     0.8491       0.645        0.848 
C3       C      0.719599     0.3614       0.0303995    0.11  
C3       C      0.2196       0.8614       0.0303995    0.11  
C3       C      0.2196       0.3614       0.5304       0.11  
C3       C      0.719599     0.8614       0.5304       0.11  
C2       C      0.7208       0.403499     0.0291994   -0.274 
C2       C      0.2208       0.9035       0.0291994   -0.274 
C2       C      0.2208       0.403499     0.5292      -0.274 
C2       C      0.7208       0.9035       0.5292      -0.274 
C1       C      0.717499     0.422501     0.0324995    0.848 
C1       C      0.2175       0.9225       0.0324995    0.848 
C1       C      0.2175       0.422501     0.5325       0.848 
C1       C      0.717499     0.9225       0.5325       0.848 
Cr2      Cr     0.0898997    0.1931       0.0898997    1.62  
Cr2      Cr     0.5899       0.693099     0.0898997    1.62  
Cr2      Cr     0.5899       0.1931       0.5899       1.62  
Cr2      Cr     0.0898997    0.693099     0.5899       1.62  
Cr1      Cr     0.0680002    0.2866       0.0680002    1.859 
Cr1      Cr     0.567999     0.7866       0.0680002    1.859 
Cr1      Cr     0.567999     0.2866       0.567999     1.859 
Cr1      Cr     0.0680002    0.7866       0.567999     1.859 
O1       O      0.2006       0.295        0.2006      -1.28  
O1       O      0.7006       0.795        0.2006      -1.28  
O1       O      0.7006       0.295        0.7006      -1.28  
O1       O      0.2006       0.795        0.7006      -1.28  
F1       F      0.1036       0.211599     0.1036      -0.566 
F1       F      0.6036       0.7116       0.1036      -0.566 
F1       F      0.6036       0.211599     0.6036      -0.566 
F1       F      0.1036       0.7116       0.6036      -0.566 
C2       C      0.15755      0.4081       0.15755     -0.274 
C2       C      0.657549     0.9081       0.15755     -0.274 
C2       C      0.657549     0.4081       0.657549    -0.274 
C2       C      0.15755      0.9081       0.657549    -0.274 
C3       C      0.181899     0.4357       0.181899     0.11  
C3       C      0.6819       0.935701     0.181899     0.11  
C3       C      0.6819       0.4357       0.6819       0.11  
C3       C      0.181899     0.935701     0.6819       0.11  
C1       C      0.145        0.4009       0.145        0.848 
C1       C      0.645        0.900899     0.145        0.848 
C1       C      0.645        0.4009       0.645        0.848 
C1       C      0.145        0.900899     0.645        0.848 
C3       C      0.0303995    0.388601     0.0303995    0.11  
C3       C      0.5304       0.8886       0.0303995    0.11  
C3       C      0.5304       0.388601     0.5304       0.11  
C3       C      0.0303995    0.8886       0.5304       0.11  
C2       C      0.0291994    0.3465       0.0291994   -0.274 
C2       C      0.5292       0.8465       0.0291994   -0.274 
C2       C      0.5292       0.3465       0.5292      -0.274 
C2       C      0.0291994    0.8465       0.5292      -0.274 
C1       C      0.0324995    0.3275       0.0324995    0.848 
C1       C      0.5325       0.8275       0.0324995    0.848 
C1       C      0.5325       0.3275       0.5325       0.848 
C1       C      0.0324995    0.8275       0.5325       0.848 
Cr1      Cr     0.1601       0.1931       0.1601       1.859 
Cr1      Cr     0.660101     0.693099     0.1601       1.859 
Cr1      Cr     0.660101     0.1931       0.660101     1.859 
Cr1      Cr     0.1601       0.693099     0.660101     1.859 
Cr1      Cr     0.181999     0.2866       0.181999     1.859 
Cr1      Cr     0.682        0.7866       0.181999     1.859 
Cr1      Cr     0.682        0.2866       0.682        1.859 
Cr1      Cr     0.181999     0.7866       0.682        1.859 
O1       O      0.0493994    0.295        0.0493994   -1.28  
O1       O      0.5494       0.795        0.0493994   -1.28  
O1       O      0.5494       0.295        0.5494      -1.28  
O1       O      0.0493994    0.795        0.5494      -1.28  
C2       C      0.0924496    0.4081       0.0924496   -0.274 
C2       C      0.59245      0.9081       0.0924496   -0.274 
C2       C      0.59245      0.4081       0.59245     -0.274 
C2       C      0.0924496    0.9081       0.59245     -0.274 
C3       C      0.0681003    0.4357       0.0681003    0.11  
C3       C      0.5681       0.935701     0.0681003    0.11  
C3       C      0.5681       0.4357       0.5681       0.11  
C3       C      0.0681003    0.935701     0.5681       0.11  
C1       C      0.105        0.4009       0.105        0.848 
C1       C      0.604999     0.900899     0.105        0.848 
C1       C      0.604999     0.4009       0.604999     0.848 
C1       C      0.105        0.900899     0.604999     0.848 
C3       C      0.2196       0.388601     0.2196       0.11  
C3       C      0.719599     0.8886       0.2196       0.11  
C3       C      0.719599     0.388601     0.719599     0.11  
C3       C      0.2196       0.8886       0.719599     0.11  
C2       C      0.2208       0.3465       0.2208      -0.274 
C2       C      0.7208       0.8465       0.2208      -0.274 
C2       C      0.7208       0.3465       0.7208      -0.274 
C2       C      0.2208       0.8465       0.7208      -0.274 
C1       C      0.2175       0.3275       0.2175       0.848 
C1       C      0.717499     0.8275       0.2175       0.848 
C1       C      0.717499     0.3275       0.717499     0.848 
C1       C      0.2175       0.8275       0.717499     0.848 
Cr1      Cr     0.8399       0.4101       0.4431       1.859 
Cr1      Cr     0.339899     0.9101       0.4431       1.859 
Cr1      Cr     0.339899     0.4101       0.9431       1.859 
Cr1      Cr     0.8399       0.9101       0.9431       1.859 
Cr1      Cr     0.318        0.432001     0.0365993    1.859 
Cr1      Cr     0.818001     0.932        0.0365993    1.859 
Cr1      Cr     0.818001     0.432001     0.5366       1.859 
Cr1      Cr     0.318        0.932        0.5366       1.859 
O1       O      0.4506       0.2994       0.0450006   -1.28  
O1       O      0.950601     0.7994       0.0450006   -1.28  
O1       O      0.950601     0.2994       0.545       -1.28  
O1       O      0.4506       0.7994       0.545       -1.28  
C2       C      0.40755      0.342451     0.1581      -0.274 
C2       C      0.90755      0.84245      0.1581      -0.274 
C2       C      0.90755      0.342451     0.658099    -0.274 
C2       C      0.40755      0.84245      0.658099    -0.274 
C3       C      0.4319       0.3181       0.1857       0.11  
C3       C      0.9319       0.818101     0.1857       0.11  
C3       C      0.9319       0.3181       0.685699     0.11  
C3       C      0.4319       0.818101     0.685699     0.11  
C1       C      0.395001     0.355        0.1509       0.848 
C1       C      0.895        0.855        0.1509       0.848 
C1       C      0.895        0.355        0.6509       0.848 
C1       C      0.395001     0.855        0.6509       0.848 
C3       C      0.280401     0.4696       0.1386       0.11  
C3       C      0.7804       0.9696       0.1386       0.11  
C3       C      0.7804       0.4696       0.6386       0.11  
C3       C      0.280401     0.9696       0.6386       0.11  
C2       C      0.2792       0.4708       0.0965      -0.274 
C2       C      0.7792       0.970801     0.0965      -0.274 
C2       C      0.7792       0.4708       0.596501    -0.274 
C2       C      0.2792       0.970801     0.596501    -0.274 
C1       C      0.282501     0.4675       0.0775001    0.848 
C1       C      0.7825       0.9675       0.0775001    0.848 
C1       C      0.7825       0.4675       0.577499     0.848 
C1       C      0.282501     0.9675       0.577499     0.848 
Cr1      Cr     0.9101       0.339899     0.4431       1.859 
Cr1      Cr     0.4101       0.8399       0.4431       1.859 
Cr1      Cr     0.4101       0.339899     0.9431       1.859 
Cr1      Cr     0.9101       0.8399       0.9431       1.859 
Cr2      Cr     0.432001     0.318        0.0365993    1.62  
Cr2      Cr     0.932        0.818001     0.0365993    1.62  
Cr2      Cr     0.932        0.318        0.5366       1.62  
Cr2      Cr     0.432001     0.818001     0.5366       1.62  
O1       O      0.2994       0.4506       0.0450006   -1.28  
O1       O      0.7994       0.950601     0.0450006   -1.28  
O1       O      0.7994       0.4506       0.545       -1.28  
O1       O      0.2994       0.950601     0.545       -1.28  
F1       F      0.4166       0.333401     0.0206993   -0.566 
F1       F      0.9166       0.8334       0.0206993   -0.566 
F1       F      0.9166       0.333401     0.5207      -0.566 
F1       F      0.4166       0.8334       0.5207      -0.566 
C2       C      0.342451     0.40755      0.1581      -0.274 
C2       C      0.84245      0.90755      0.1581      -0.274 
C2       C      0.84245      0.40755      0.658099    -0.274 
C2       C      0.342451     0.90755      0.658099    -0.274 
C3       C      0.3181       0.4319       0.1857       0.11  
C3       C      0.818101     0.9319       0.1857       0.11  
C3       C      0.818101     0.4319       0.685699     0.11  
C3       C      0.3181       0.9319       0.685699     0.11  
C1       C      0.355        0.395001     0.1509       0.848 
C1       C      0.855        0.895        0.1509       0.848 
C1       C      0.855        0.395001     0.6509       0.848 
C1       C      0.355        0.895        0.6509       0.848 
C3       C      0.4696       0.280401     0.1386       0.11  
C3       C      0.9696       0.7804       0.1386       0.11  
C3       C      0.9696       0.280401     0.6386       0.11  
C3       C      0.4696       0.7804       0.6386       0.11  
C2       C      0.4708       0.2792       0.0965      -0.274 
C2       C      0.970801     0.7792       0.0965      -0.274 
C2       C      0.970801     0.2792       0.596501    -0.274 
C2       C      0.4708       0.7792       0.596501    -0.274 
C1       C      0.4675       0.282501     0.0775001    0.848 
C1       C      0.9675       0.7825       0.0775001    0.848 
C1       C      0.9675       0.282501     0.577499     0.848 
C1       C      0.4675       0.7825       0.577499     0.848 
Cr2      Cr     0.8399       0.339899     0.306901     1.62  
Cr2      Cr     0.339899     0.8399       0.306901     1.62  
Cr2      Cr     0.339899     0.339899     0.8069       1.62  
Cr2      Cr     0.8399       0.8399       0.8069       1.62  
Cr1      Cr     0.818001     0.318        0.2134       1.859 
Cr1      Cr     0.318        0.818001     0.2134       1.859 
Cr1      Cr     0.318        0.318        0.7134       1.859 
Cr1      Cr     0.818001     0.818001     0.7134       1.859 
O1       O      0.950601     0.4506       0.205       -1.28  
O1       O      0.4506       0.950601     0.205       -1.28  
O1       O      0.4506       0.4506       0.705       -1.28  
O1       O      0.950601     0.950601     0.705       -1.28  
F1       F      0.8536       0.353601     0.2884      -0.566 
F1       F      0.353601     0.8536       0.2884      -0.566 
F1       F      0.353601     0.353601     0.788401    -0.566 
F1       F      0.8536       0.8536       0.788401    -0.566 
C2       C      0.90755      0.40755      0.0918995   -0.274 
C2       C      0.40755      0.90755      0.0918995   -0.274 
C2       C      0.40755      0.40755      0.5919      -0.274 
C2       C      0.90755      0.90755      0.5919      -0.274 
C3       C      0.9319       0.4319       0.0642995    0.11  
C3       C      0.4319       0.9319       0.0642995    0.11  
C3       C      0.4319       0.4319       0.5643       0.11  
C3       C      0.9319       0.9319       0.5643       0.11  
C1       C      0.895        0.395001     0.0991006    0.848 
C1       C      0.395001     0.895        0.0991006    0.848 
C1       C      0.395001     0.395001     0.5991       0.848 
C1       C      0.895        0.895        0.5991       0.848 
C3       C      0.7804       0.280401     0.1114       0.11  
C3       C      0.280401     0.7804       0.1114       0.11  
C3       C      0.280401     0.280401     0.611399     0.11  
C3       C      0.7804       0.7804       0.611399     0.11  
C2       C      0.7792       0.2792       0.1535      -0.274 
C2       C      0.2792       0.7792       0.1535      -0.274 
C2       C      0.2792       0.2792       0.6535      -0.274 
C2       C      0.7792       0.7792       0.6535      -0.274 
C1       C      0.7825       0.282501     0.1725       0.848 
C1       C      0.282501     0.7825       0.1725       0.848 
C1       C      0.282501     0.282501     0.6725       0.848 
C1       C      0.7825       0.7825       0.6725       0.848 
Cr2      Cr     0.9101       0.4101       0.306901     1.62  
Cr2      Cr     0.4101       0.9101       0.306901     1.62  
Cr2      Cr     0.4101       0.4101       0.8069       1.62  
Cr2      Cr     0.9101       0.9101       0.8069       1.62  
Cr1      Cr     0.932        0.432001     0.2134       1.859 
Cr1      Cr     0.432001     0.932        0.2134       1.859 
Cr1      Cr     0.432001     0.432001     0.7134       1.859 
Cr1      Cr     0.932        0.932        0.7134       1.859 
O1       O      0.7994       0.2994       0.205       -1.28  
O1       O      0.2994       0.7994       0.205       -1.28  
O1       O      0.2994       0.2994       0.705       -1.28  
O1       O      0.7994       0.7994       0.705       -1.28  
F1       F      0.8964       0.3964       0.2884      -0.566 
F1       F      0.3964       0.8964       0.2884      -0.566 
F1       F      0.3964       0.3964       0.788401    -0.566 
F1       F      0.8964       0.8964       0.788401    -0.566 
C2       C      0.84245      0.342451     0.0918995   -0.274 
C2       C      0.342451     0.84245      0.0918995   -0.274 
C2       C      0.342451     0.342451     0.5919      -0.274 
C2       C      0.84245      0.84245      0.5919      -0.274 
C3       C      0.818101     0.3181       0.0642995    0.11  
C3       C      0.3181       0.818101     0.0642995    0.11  
C3       C      0.3181       0.3181       0.5643       0.11  
C3       C      0.818101     0.818101     0.5643       0.11  
C1       C      0.855        0.355        0.0991006    0.848 
C1       C      0.355        0.855        0.0991006    0.848 
C1       C      0.355        0.355        0.5991       0.848 
C1       C      0.855        0.855        0.5991       0.848 
C3       C      0.9696       0.4696       0.1114       0.11  
C3       C      0.4696       0.9696       0.1114       0.11  
C3       C      0.4696       0.4696       0.611399     0.11  
C3       C      0.9696       0.9696       0.611399     0.11  
C2       C      0.970801     0.4708       0.1535      -0.274 
C2       C      0.4708       0.970801     0.1535      -0.274 
C2       C      0.4708       0.4708       0.6535      -0.274 
C2       C      0.970801     0.970801     0.6535      -0.274 
C1       C      0.9675       0.4675       0.1725       0.848 
C1       C      0.4675       0.9675       0.1725       0.848 
C1       C      0.4675       0.4675       0.6725       0.848 
C1       C      0.9675       0.9675       0.6725       0.848 
Cr1      Cr     0.9101       0.306901     0.4101       1.859 
Cr1      Cr     0.4101       0.8069       0.4101       1.859 
Cr1      Cr     0.4101       0.306901     0.9101       1.859 
Cr1      Cr     0.9101       0.8069       0.9101       1.859 
Cr1      Cr     0.932        0.2134       0.432001     1.859 
Cr1      Cr     0.432001     0.7134       0.432001     1.859 
Cr1      Cr     0.432001     0.2134       0.932        1.859 
Cr1      Cr     0.932        0.7134       0.932        1.859 
O1       O      0.7994       0.205        0.2994      -1.28  
O1       O      0.2994       0.705        0.2994      -1.28  
O1       O      0.2994       0.205        0.7994      -1.28  
O1       O      0.7994       0.705        0.7994      -1.28  
C2       C      0.84245      0.0918995    0.342451    -0.274 
C2       C      0.342451     0.5919       0.342451    -0.274 
C2       C      0.342451     0.0918995    0.84245     -0.274 
C2       C      0.84245      0.5919       0.84245     -0.274 
C3       C      0.818101     0.0642995    0.3181       0.11  
C3       C      0.3181       0.5643       0.3181       0.11  
C3       C      0.3181       0.0642995    0.818101     0.11  
C3       C      0.818101     0.5643       0.818101     0.11  
C1       C      0.855        0.0991006    0.355        0.848 
C1       C      0.355        0.5991       0.355        0.848 
C1       C      0.355        0.0991006    0.855        0.848 
C1       C      0.855        0.5991       0.855        0.848 
C3       C      0.9696       0.1114       0.4696       0.11  
C3       C      0.4696       0.611399     0.4696       0.11  
C3       C      0.4696       0.1114       0.9696       0.11  
C3       C      0.9696       0.611399     0.9696       0.11  
C2       C      0.970801     0.1535       0.4708      -0.274 
C2       C      0.4708       0.6535       0.4708      -0.274 
C2       C      0.4708       0.1535       0.970801    -0.274 
C2       C      0.970801     0.6535       0.970801    -0.274 
C1       C      0.9675       0.1725       0.4675       0.848 
C1       C      0.4675       0.6725       0.4675       0.848 
C1       C      0.4675       0.1725       0.9675       0.848 
C1       C      0.9675       0.6725       0.9675       0.848 
Cr1      Cr     0.8399       0.306901     0.339899     1.859 
Cr1      Cr     0.339899     0.8069       0.339899     1.859 
Cr1      Cr     0.339899     0.306901     0.8399       1.859 
Cr1      Cr     0.8399       0.8069       0.8399       1.859 
Cr2      Cr     0.818001     0.2134       0.318        1.62  
Cr2      Cr     0.318        0.7134       0.318        1.62  
Cr2      Cr     0.318        0.2134       0.818001     1.62  
Cr2      Cr     0.818001     0.7134       0.818001     1.62  
O1       O      0.950601     0.205        0.4506      -1.28  
O1       O      0.4506       0.705        0.4506      -1.28  
O1       O      0.4506       0.205        0.950601    -1.28  
O1       O      0.950601     0.705        0.950601    -1.28  
F1       F      0.8334       0.2293       0.333401    -0.566 
F1       F      0.333401     0.7293       0.333401    -0.566 
F1       F      0.333401     0.2293       0.8334      -0.566 
F1       F      0.8334       0.7293       0.8334      -0.566 
C2       C      0.90755      0.0918995    0.40755     -0.274 
C2       C      0.40755      0.5919       0.40755     -0.274 
C2       C      0.40755      0.0918995    0.90755     -0.274 
C2       C      0.90755      0.5919       0.90755     -0.274 
C3       C      0.9319       0.0642995    0.4319       0.11  
C3       C      0.4319       0.5643       0.4319       0.11  
C3       C      0.4319       0.0642995    0.9319       0.11  
C3       C      0.9319       0.5643       0.9319       0.11  
C1       C      0.895        0.0991006    0.395001     0.848 
C1       C      0.395001     0.5991       0.395001     0.848 
C1       C      0.395001     0.0991006    0.895        0.848 
C1       C      0.895        0.5991       0.895        0.848 
C3       C      0.7804       0.1114       0.280401     0.11  
C3       C      0.280401     0.611399     0.280401     0.11  
C3       C      0.280401     0.1114       0.7804       0.11  
C3       C      0.7804       0.611399     0.7804       0.11  
C2       C      0.7792       0.1535       0.2792      -0.274 
C2       C      0.2792       0.6535       0.2792      -0.274 
C2       C      0.2792       0.1535       0.7792      -0.274 
C2       C      0.7792       0.6535       0.7792      -0.274 
C1       C      0.7825       0.1725       0.282501     0.848 
C1       C      0.282501     0.6725       0.282501     0.848 
C1       C      0.282501     0.1725       0.7825       0.848 
C1       C      0.7825       0.6725       0.7825       0.848 
Cr2      Cr     0.8399       0.4431       0.4101       1.62  
Cr2      Cr     0.339899     0.9431       0.4101       1.62  
Cr2      Cr     0.339899     0.4431       0.9101       1.62  
Cr2      Cr     0.8399       0.9431       0.9101       1.62  
Cr1      Cr     0.318        0.0365993    0.432001     1.859 
Cr1      Cr     0.818001     0.5366       0.432001     1.859 
Cr1      Cr     0.818001     0.0365993    0.932        1.859 
Cr1      Cr     0.318        0.5366       0.932        1.859 
O1       O      0.4506       0.0450006    0.2994      -1.28  
O1       O      0.950601     0.545        0.2994      -1.28  
O1       O      0.950601     0.0450006    0.7994      -1.28  
O1       O      0.4506       0.545        0.7994      -1.28  
F1       F      0.8536       0.4616       0.3964      -0.566 
F1       F      0.353601     0.9616       0.3964      -0.566 
F1       F      0.353601     0.4616       0.8964      -0.566 
F1       F      0.8536       0.9616       0.8964      -0.566 
C2       C      0.40755      0.1581       0.342451    -0.274 
C2       C      0.90755      0.658099     0.342451    -0.274 
C2       C      0.90755      0.1581       0.84245     -0.274 
C2       C      0.40755      0.658099     0.84245     -0.274 
C3       C      0.4319       0.1857       0.3181       0.11  
C3       C      0.9319       0.685699     0.3181       0.11  
C3       C      0.9319       0.1857       0.818101     0.11  
C3       C      0.4319       0.685699     0.818101     0.11  
C1       C      0.395001     0.1509       0.355        0.848 
C1       C      0.895        0.6509       0.355        0.848 
C1       C      0.895        0.1509       0.855        0.848 
C1       C      0.395001     0.6509       0.855        0.848 
C3       C      0.280401     0.1386       0.4696       0.11  
C3       C      0.7804       0.6386       0.4696       0.11  
C3       C      0.7804       0.1386       0.9696       0.11  
C3       C      0.280401     0.6386       0.9696       0.11  
C2       C      0.2792       0.0965       0.4708      -0.274 
C2       C      0.7792       0.596501     0.4708      -0.274 
C2       C      0.7792       0.0965       0.970801    -0.274 
C2       C      0.2792       0.596501     0.970801    -0.274 
C1       C      0.282501     0.0775001    0.4675       0.848 
C1       C      0.7825       0.577499     0.4675       0.848 
C1       C      0.7825       0.0775001    0.9675       0.848 
C1       C      0.282501     0.577499     0.9675       0.848 
Cr1      Cr     0.9101       0.4431       0.339899     1.859 
Cr1      Cr     0.4101       0.9431       0.339899     1.859 
Cr1      Cr     0.4101       0.4431       0.8399       1.859 
Cr1      Cr     0.9101       0.9431       0.8399       1.859 
Cr2      Cr     0.432001     0.0365993    0.318        1.62  
Cr2      Cr     0.932        0.5366       0.318        1.62  
Cr2      Cr     0.932        0.0365993    0.818001     1.62  
Cr2      Cr     0.432001     0.5366       0.818001     1.62  
O1       O      0.2994       0.0450006    0.4506      -1.28  
O1       O      0.7994       0.545        0.4506      -1.28  
O1       O      0.7994       0.0450006    0.950601    -1.28  
O1       O      0.2994       0.545        0.950601    -1.28  
F1       F      0.4166       0.0206993    0.333401    -0.566 
F1       F      0.9166       0.5207       0.333401    -0.566 
F1       F      0.9166       0.0206993    0.8334      -0.566 
F1       F      0.4166       0.5207       0.8334      -0.566 
C2       C      0.342451     0.1581       0.40755     -0.274 
C2       C      0.84245      0.658099     0.40755     -0.274 
C2       C      0.84245      0.1581       0.90755     -0.274 
C2       C      0.342451     0.658099     0.90755     -0.274 
C3       C      0.3181       0.1857       0.4319       0.11  
C3       C      0.818101     0.685699     0.4319       0.11  
C3       C      0.818101     0.1857       0.9319       0.11  
C3       C      0.3181       0.685699     0.9319       0.11  
C1       C      0.355        0.1509       0.395001     0.848 
C1       C      0.855        0.6509       0.395001     0.848 
C1       C      0.855        0.1509       0.895        0.848 
C1       C      0.355        0.6509       0.895        0.848 
C3       C      0.4696       0.1386       0.280401     0.11  
C3       C      0.9696       0.6386       0.280401     0.11  
C3       C      0.9696       0.1386       0.7804       0.11  
C3       C      0.4696       0.6386       0.7804       0.11  
C2       C      0.4708       0.0965       0.2792      -0.274 
C2       C      0.970801     0.596501     0.2792      -0.274 
C2       C      0.970801     0.0965       0.7792      -0.274 
C2       C      0.4708       0.596501     0.7792      -0.274 
C1       C      0.4675       0.0775001    0.282501     0.848 
C1       C      0.9675       0.577499     0.282501     0.848 
C1       C      0.9675       0.0775001    0.7825       0.848 
C1       C      0.4675       0.577499     0.7825       0.848 
Cr1      Cr     0.8069       0.339899     0.339899     1.859 
Cr1      Cr     0.306901     0.8399       0.339899     1.859 
Cr1      Cr     0.306901     0.339899     0.8399       1.859 
Cr1      Cr     0.8069       0.8399       0.8399       1.859 
Cr2      Cr     0.7134       0.318        0.318        1.62  
Cr2      Cr     0.2134       0.818001     0.318        1.62  
Cr2      Cr     0.2134       0.318        0.818001     1.62  
Cr2      Cr     0.7134       0.818001     0.818001     1.62  
O1       O      0.705        0.4506       0.4506      -1.28  
O1       O      0.205        0.950601     0.4506      -1.28  
O1       O      0.205        0.4506       0.950601    -1.28  
O1       O      0.705        0.950601     0.950601    -1.28  
F1       F      0.7293       0.333401     0.333401    -0.566 
F1       F      0.2293       0.8334       0.333401    -0.566 
F1       F      0.2293       0.333401     0.8334      -0.566 
F1       F      0.7293       0.8334       0.8334      -0.566 
C2       C      0.5919       0.40755      0.40755     -0.274 
C2       C      0.0918995    0.90755      0.40755     -0.274 
C2       C      0.0918995    0.40755      0.90755     -0.274 
C2       C      0.5919       0.90755      0.90755     -0.274 
C3       C      0.5643       0.4319       0.4319       0.11  
C3       C      0.0642995    0.9319       0.4319       0.11  
C3       C      0.0642995    0.4319       0.9319       0.11  
C3       C      0.5643       0.9319       0.9319       0.11  
C1       C      0.5991       0.395001     0.395001     0.848 
C1       C      0.0991006    0.895        0.395001     0.848 
C1       C      0.0991006    0.395001     0.895        0.848 
C1       C      0.5991       0.895        0.895        0.848 
C3       C      0.611399     0.280401     0.280401     0.11  
C3       C      0.1114       0.7804       0.280401     0.11  
C3       C      0.1114       0.280401     0.7804       0.11  
C3       C      0.611399     0.7804       0.7804       0.11  
C2       C      0.6535       0.2792       0.2792      -0.274 
C2       C      0.1535       0.7792       0.2792      -0.274 
C2       C      0.1535       0.2792       0.7792      -0.274 
C2       C      0.6535       0.7792       0.7792      -0.274 
C1       C      0.6725       0.282501     0.282501     0.848 
C1       C      0.1725       0.7825       0.282501     0.848 
C1       C      0.1725       0.282501     0.7825       0.848 
C1       C      0.6725       0.7825       0.7825       0.848 
Cr1      Cr     0.8069       0.4101       0.4101       1.859 
Cr1      Cr     0.306901     0.9101       0.4101       1.859 
Cr1      Cr     0.306901     0.4101       0.9101       1.859 
Cr1      Cr     0.8069       0.9101       0.9101       1.859 
Cr1      Cr     0.7134       0.432001     0.432001     1.859 
Cr1      Cr     0.2134       0.932        0.432001     1.859 
Cr1      Cr     0.2134       0.432001     0.932        1.859 
Cr1      Cr     0.7134       0.932        0.932        1.859 
O1       O      0.705        0.2994       0.2994      -1.28  
O1       O      0.205        0.7994       0.2994      -1.28  
O1       O      0.205        0.2994       0.7994      -1.28  
O1       O      0.705        0.7994       0.7994      -1.28  
C2       C      0.5919       0.342451     0.342451    -0.274 
C2       C      0.0918995    0.84245      0.342451    -0.274 
C2       C      0.0918995    0.342451     0.84245     -0.274 
C2       C      0.5919       0.84245      0.84245     -0.274 
C3       C      0.5643       0.3181       0.3181       0.11  
C3       C      0.0642995    0.818101     0.3181       0.11  
C3       C      0.0642995    0.3181       0.818101     0.11  
C3       C      0.5643       0.818101     0.818101     0.11  
C1       C      0.5991       0.355        0.355        0.848 
C1       C      0.0991006    0.855        0.355        0.848 
C1       C      0.0991006    0.355        0.855        0.848 
C1       C      0.5991       0.855        0.855        0.848 
C3       C      0.611399     0.4696       0.4696       0.11  
C3       C      0.1114       0.9696       0.4696       0.11  
C3       C      0.1114       0.4696       0.9696       0.11  
C3       C      0.611399     0.9696       0.9696       0.11  
C2       C      0.6535       0.4708       0.4708      -0.274 
C2       C      0.1535       0.970801     0.4708      -0.274 
C2       C      0.1535       0.4708       0.970801    -0.274 
C2       C      0.6535       0.970801     0.970801    -0.274 
C1       C      0.6725       0.4675       0.4675       0.848 
C1       C      0.1725       0.9675       0.4675       0.848 
C1       C      0.1725       0.4675       0.9675       0.848 
C1       C      0.6725       0.9675       0.9675       0.848 
Cr2      Cr     0.9431       0.339899     0.4101       1.62  
Cr2      Cr     0.4431       0.8399       0.4101       1.62  
Cr2      Cr     0.4431       0.339899     0.9101       1.62  
Cr2      Cr     0.9431       0.8399       0.9101       1.62  
Cr1      Cr     0.0365993    0.318        0.432001     1.859 
Cr1      Cr     0.5366       0.818001     0.432001     1.859 
Cr1      Cr     0.5366       0.318        0.932        1.859 
Cr1      Cr     0.0365993    0.818001     0.932        1.859 
O1       O      0.0450006    0.4506       0.2994      -1.28  
O1       O      0.545        0.950601     0.2994      -1.28  
O1       O      0.545        0.4506       0.7994      -1.28  
O1       O      0.0450006    0.950601     0.7994      -1.28  
F1       F      0.9616       0.353601     0.3964      -0.566 
F1       F      0.4616       0.8536       0.3964      -0.566 
F1       F      0.4616       0.353601     0.8964      -0.566 
F1       F      0.9616       0.8536       0.8964      -0.566 
C2       C      0.1581       0.40755      0.342451    -0.274 
C2       C      0.658099     0.90755      0.342451    -0.274 
C2       C      0.658099     0.40755      0.84245     -0.274 
C2       C      0.1581       0.90755      0.84245     -0.274 
C3       C      0.1857       0.4319       0.3181       0.11  
C3       C      0.685699     0.9319       0.3181       0.11  
C3       C      0.685699     0.4319       0.818101     0.11  
C3       C      0.1857       0.9319       0.818101     0.11  
C1       C      0.1509       0.395001     0.355        0.848 
C1       C      0.6509       0.895        0.355        0.848 
C1       C      0.6509       0.395001     0.855        0.848 
C1       C      0.1509       0.895        0.855        0.848 
C3       C      0.1386       0.280401     0.4696       0.11  
C3       C      0.6386       0.7804       0.4696       0.11  
C3       C      0.6386       0.280401     0.9696       0.11  
C3       C      0.1386       0.7804       0.9696       0.11  
C2       C      0.0965       0.2792       0.4708      -0.274 
C2       C      0.596501     0.7792       0.4708      -0.274 
C2       C      0.596501     0.2792       0.970801    -0.274 
C2       C      0.0965       0.7792       0.970801    -0.274 
C1       C      0.0775001    0.282501     0.4675       0.848 
C1       C      0.577499     0.7825       0.4675       0.848 
C1       C      0.577499     0.282501     0.9675       0.848 
C1       C      0.0775001    0.7825       0.9675       0.848 
Cr1      Cr     0.9431       0.4101       0.339899     1.859 
Cr1      Cr     0.4431       0.9101       0.339899     1.859 
Cr1      Cr     0.4431       0.4101       0.8399       1.859 
Cr1      Cr     0.9431       0.9101       0.8399       1.859 
Cr1      Cr     0.0365993    0.432001     0.318        1.859 
Cr1      Cr     0.5366       0.932        0.318        1.859 
Cr1      Cr     0.5366       0.432001     0.818001     1.859 
Cr1      Cr     0.0365993    0.932        0.818001     1.859 
O1       O      0.0450006    0.2994       0.4506      -1.28  
O1       O      0.545        0.7994       0.4506      -1.28  
O1       O      0.545        0.2994       0.950601    -1.28  
O1       O      0.0450006    0.7994       0.950601    -1.28  
C2       C      0.1581       0.342451     0.40755     -0.274 
C2       C      0.658099     0.84245      0.40755     -0.274 
C2       C      0.658099     0.342451     0.90755     -0.274 
C2       C      0.1581       0.84245      0.90755     -0.274 
C3       C      0.1857       0.3181       0.4319       0.11  
C3       C      0.685699     0.818101     0.4319       0.11  
C3       C      0.685699     0.3181       0.9319       0.11  
C3       C      0.1857       0.818101     0.9319       0.11  
C1       C      0.1509       0.355        0.395001     0.848 
C1       C      0.6509       0.855        0.395001     0.848 
C1       C      0.6509       0.355        0.895        0.848 
C1       C      0.1509       0.855        0.895        0.848 
C3       C      0.1386       0.4696       0.280401     0.11  
C3       C      0.6386       0.9696       0.280401     0.11  
C3       C      0.6386       0.4696       0.7804       0.11  
C3       C      0.1386       0.9696       0.7804       0.11  
C2       C      0.0965       0.4708       0.2792      -0.274 
C2       C      0.596501     0.970801     0.2792      -0.274 
C2       C      0.596501     0.4708       0.7792      -0.274 
C2       C      0.0965       0.970801     0.7792      -0.274 
C1       C      0.0775001    0.4675       0.282501     0.848 
C1       C      0.577499     0.9675       0.282501     0.848 
C1       C      0.577499     0.4675       0.7825       0.848 
C1       C      0.0775001    0.9675       0.7825       0.848 
Cr2      Cr     0.625001     0.125        0.4069       1.62  
Cr2      Cr     0.125        0.625001     0.4069       1.62  
Cr2      Cr     0.125        0.125        0.9069       1.62  
Cr2      Cr     0.625001     0.625001     0.9069       1.62  
O1       O      0.625001     0.125        0.3805      -1.28  
O1       O      0.125        0.625001     0.3805      -1.28  
O1       O      0.125        0.125        0.8805      -1.28  
O1       O      0.625001     0.625001     0.8805      -1.28  
Cr1      Cr     0.125        0.125        0.343099     1.859 
Cr1      Cr     0.625001     0.625001     0.343099     1.859 
Cr1      Cr     0.625001     0.125        0.8431       1.859 
Cr1      Cr     0.125        0.625001     0.8431       1.859 
O1       O      0.125        0.125        0.369501    -1.28  
O1       O      0.625001     0.625001     0.369501    -1.28  
O1       O      0.625001     0.125        0.8695      -1.28  
O1       O      0.125        0.625001     0.8695      -1.28  
Cr1      Cr     0.9069       0.125        0.125        1.859 
Cr1      Cr     0.4069       0.625001     0.125        1.859 
Cr1      Cr     0.4069       0.125        0.625001     1.859 
Cr1      Cr     0.9069       0.625001     0.625001     1.859 
O1       O      0.8805       0.125        0.125       -1.28  
O1       O      0.3805       0.625001     0.125       -1.28  
O1       O      0.3805       0.125        0.625001    -1.28  
O1       O      0.8805       0.625001     0.625001    -1.28  
Cr1      Cr     0.343099     0.125        0.125        1.859 
Cr1      Cr     0.8431       0.625001     0.125        1.859 
Cr1      Cr     0.8431       0.125        0.625001     1.859 
Cr1      Cr     0.343099     0.625001     0.625001     1.859 
O1       O      0.369501     0.125        0.125       -1.28  
O1       O      0.8695       0.625001     0.125       -1.28  
O1       O      0.8695       0.125        0.625001    -1.28  
O1       O      0.369501     0.625001     0.625001    -1.28  
Cr1      Cr     0.625001     0.4069       0.125        1.859 
Cr1      Cr     0.125        0.9069       0.125        1.859 
Cr1      Cr     0.125        0.4069       0.625001     1.859 
Cr1      Cr     0.625001     0.9069       0.625001     1.859 
O1       O      0.625001     0.3805       0.125       -1.28  
O1       O      0.125        0.8805       0.125       -1.28  
O1       O      0.125        0.3805       0.625001    -1.28  
O1       O      0.625001     0.8805       0.625001    -1.28  
Cr1      Cr     0.125        0.343099     0.125        1.859 
Cr1      Cr     0.625001     0.8431       0.125        1.859 
Cr1      Cr     0.625001     0.343099     0.625001     1.859 
Cr1      Cr     0.125        0.8431       0.625001     1.859 
O1       O      0.125        0.369501     0.125       -1.28  
O1       O      0.625001     0.8695       0.125       -1.28  
O1       O      0.625001     0.369501     0.625001    -1.28  
O1       O      0.125        0.8695       0.625001    -1.28  
Cr2      Cr     0.374999     0.374999     0.0930997    1.62  
Cr2      Cr     0.875        0.875        0.0930997    1.62  
Cr2      Cr     0.875        0.374999     0.5931       1.62  
Cr2      Cr     0.374999     0.875        0.5931       1.62  
O1       O      0.374999     0.374999     0.1195      -1.28  
O1       O      0.875        0.875        0.1195      -1.28  
O1       O      0.875        0.374999     0.6195      -1.28  
O1       O      0.374999     0.875        0.6195      -1.28  
Cr1      Cr     0.875        0.374999     0.1569       1.859 
Cr1      Cr     0.374999     0.875        0.1569       1.859 
Cr1      Cr     0.374999     0.374999     0.656901     1.859 
Cr1      Cr     0.875        0.875        0.656901     1.859 
O1       O      0.875        0.374999     0.1305      -1.28  
O1       O      0.374999     0.875        0.1305      -1.28  
O1       O      0.374999     0.374999     0.630499    -1.28  
O1       O      0.875        0.875        0.630499    -1.28  
Cr1      Cr     0.875        0.1569       0.374999     1.859 
Cr1      Cr     0.374999     0.656901     0.374999     1.859 
Cr1      Cr     0.374999     0.1569       0.875        1.859 
Cr1      Cr     0.875        0.656901     0.875        1.859 
O1       O      0.875        0.1305       0.374999    -1.28  
O1       O      0.374999     0.630499     0.374999    -1.28  
O1       O      0.374999     0.1305       0.875       -1.28  
O1       O      0.875        0.630499     0.875       -1.28  
Cr1      Cr     0.374999     0.0930997    0.374999     1.859 
Cr1      Cr     0.875        0.5931       0.374999     1.859 
Cr1      Cr     0.875        0.0930997    0.875        1.859 
Cr1      Cr     0.374999     0.5931       0.875        1.859 
O1       O      0.374999     0.1195       0.374999    -1.28  
O1       O      0.875        0.6195       0.374999    -1.28  
O1       O      0.875        0.1195       0.875       -1.28  
O1       O      0.374999     0.6195       0.875       -1.28  
Cr1      Cr     0.656901     0.374999     0.374999     1.859 
Cr1      Cr     0.1569       0.875        0.374999     1.859 
Cr1      Cr     0.1569       0.374999     0.875        1.859 
Cr1      Cr     0.656901     0.875        0.875        1.859 
O1       O      0.630499     0.374999     0.374999    -1.28  
O1       O      0.1305       0.875        0.374999    -1.28  
O1       O      0.1305       0.374999     0.875       -1.28  
O1       O      0.630499     0.875        0.875       -1.28  
Cr1      Cr     0.0930997    0.374999     0.374999     1.859 
Cr1      Cr     0.5931       0.875        0.374999     1.859 
Cr1      Cr     0.5931       0.374999     0.875        1.859 
Cr1      Cr     0.0930997    0.875        0.875        1.859 
O1       O      0.1195       0.374999     0.374999    -1.28  
O1       O      0.6195       0.875        0.374999    -1.28  
O1       O      0.6195       0.374999     0.875       -1.28  
O1       O      0.1195       0.875        0.875       -1.28  
Cr2      Cr     0.60935      0.109349     0.3651       1.62  
Cr2      Cr     0.109349     0.60935      0.3651       1.62  
Cr2      Cr     0.109349     0.109349     0.8651       1.62  
Cr2      Cr     0.60935      0.60935      0.8651       1.62  
F1       F      0.591199     0.0912       0.3565      -0.566 
F1       F      0.0912       0.591199     0.3565      -0.566 
F1       F      0.0912       0.0912       0.8565      -0.566 
F1       F      0.591199     0.591199     0.8565      -0.566 
C3       C      0.1476       0.1476       0.0774       0.11  
C3       C      0.6476       0.6476       0.0774       0.11  
C3       C      0.6476       0.1476       0.577401     0.11  
C3       C      0.1476       0.6476       0.577401     0.11  
Cr1      Cr     0.640649     0.14065      0.3651       1.859 
Cr1      Cr     0.14065      0.640649     0.3651       1.859 
Cr1      Cr     0.14065      0.14065      0.8651       1.859 
Cr1      Cr     0.640649     0.640649     0.8651       1.859 
C3       C      0.102399     0.102399     0.0774       0.11  
C3       C      0.6024       0.6024       0.0774       0.11  
C3       C      0.6024       0.102399     0.577401     0.11  
C3       C      0.102399     0.6024       0.577401     0.11  
Cr2      Cr     0.14065      0.109349     0.3849       1.62  
Cr2      Cr     0.640649     0.60935      0.3849       1.62  
Cr2      Cr     0.640649     0.109349     0.884901     1.62  
Cr2      Cr     0.14065      0.60935      0.884901     1.62  
F1       F      0.1588       0.0912       0.3935      -0.566 
F1       F      0.6588       0.591199     0.3935      -0.566 
F1       F      0.6588       0.0912       0.893499    -0.566 
F1       F      0.1588       0.591199     0.893499    -0.566 
C3       C      0.102399     0.1476       0.1726       0.11  
C3       C      0.6024       0.6476       0.1726       0.11  
C3       C      0.6024       0.1476       0.6726       0.11  
C3       C      0.102399     0.6476       0.6726       0.11  
Cr1      Cr     0.109349     0.14065      0.3849       1.859 
Cr1      Cr     0.60935      0.640649     0.3849       1.859 
Cr1      Cr     0.60935      0.14065      0.884901     1.859 
Cr1      Cr     0.109349     0.640649     0.884901     1.859 
C3       C      0.1476       0.102399     0.1726       0.11  
C3       C      0.6476       0.6024       0.1726       0.11  
C3       C      0.6476       0.102399     0.6726       0.11  
C3       C      0.1476       0.6024       0.6726       0.11  
Cr1      Cr     0.8651       0.109349     0.109349     1.859 
Cr1      Cr     0.3651       0.60935      0.109349     1.859 
Cr1      Cr     0.3651       0.109349     0.60935      1.859 
Cr1      Cr     0.8651       0.60935      0.60935      1.859 
C3       C      0.0774       0.1476       0.1476       0.11  
C3       C      0.577401     0.6476       0.1476       0.11  
C3       C      0.577401     0.1476       0.6476       0.11  
C3       C      0.0774       0.6476       0.6476       0.11  
Cr2      Cr     0.8651       0.14065      0.14065      1.62  
Cr2      Cr     0.3651       0.640649     0.14065      1.62  
Cr2      Cr     0.3651       0.14065      0.640649     1.62  
Cr2      Cr     0.8651       0.640649     0.640649     1.62  
F1       F      0.8565       0.1588       0.1588      -0.566 
F1       F      0.3565       0.6588       0.1588      -0.566 
F1       F      0.3565       0.1588       0.6588      -0.566 
F1       F      0.8565       0.6588       0.6588      -0.566 
C3       C      0.0774       0.102399     0.102399     0.11  
C3       C      0.577401     0.6024       0.102399     0.11  
C3       C      0.577401     0.102399     0.6024       0.11  
C3       C      0.0774       0.6024       0.6024       0.11  
Cr2      Cr     0.3849       0.14065      0.109349     1.62  
Cr2      Cr     0.884901     0.640649     0.109349     1.62  
Cr2      Cr     0.884901     0.14065      0.60935      1.62  
Cr2      Cr     0.3849       0.640649     0.60935      1.62  
F1       F      0.3935       0.1588       0.0912      -0.566 
F1       F      0.893499     0.6588       0.0912      -0.566 
F1       F      0.893499     0.1588       0.591199    -0.566 
F1       F      0.3935       0.6588       0.591199    -0.566 
C3       C      0.1726       0.102399     0.1476       0.11  
C3       C      0.6726       0.6024       0.1476       0.11  
C3       C      0.6726       0.102399     0.6476       0.11  
C3       C      0.1726       0.6024       0.6476       0.11  
Cr1      Cr     0.3849       0.109349     0.14065      1.859 
Cr1      Cr     0.884901     0.60935      0.14065      1.859 
Cr1      Cr     0.884901     0.109349     0.640649     1.859 
Cr1      Cr     0.3849       0.60935      0.640649     1.859 
C3       C      0.1726       0.1476       0.102399     0.11  
C3       C      0.6726       0.6476       0.102399     0.11  
C3       C      0.6726       0.1476       0.6024       0.11  
C3       C      0.1726       0.6476       0.6024       0.11  
Cr2      Cr     0.60935      0.3651       0.109349     1.62  
Cr2      Cr     0.109349     0.8651       0.109349     1.62  
Cr2      Cr     0.109349     0.3651       0.60935      1.62  
Cr2      Cr     0.60935      0.8651       0.60935      1.62  
F1       F      0.591199     0.3565       0.0912      -0.566 
F1       F      0.0912       0.8565       0.0912      -0.566 
F1       F      0.0912       0.3565       0.591199    -0.566 
F1       F      0.591199     0.8565       0.591199    -0.566 
C3       C      0.1476       0.0774       0.1476       0.11  
C3       C      0.6476       0.577401     0.1476       0.11  
C3       C      0.6476       0.0774       0.6476       0.11  
C3       C      0.1476       0.577401     0.6476       0.11  
Cr1      Cr     0.640649     0.3651       0.14065      1.859 
Cr1      Cr     0.14065      0.8651       0.14065      1.859 
Cr1      Cr     0.14065      0.3651       0.640649     1.859 
Cr1      Cr     0.640649     0.8651       0.640649     1.859 
C3       C      0.102399     0.0774       0.102399     0.11  
C3       C      0.6024       0.577401     0.102399     0.11  
C3       C      0.6024       0.0774       0.6024       0.11  
C3       C      0.102399     0.577401     0.6024       0.11  
Cr2      Cr     0.109349     0.3849       0.14065      1.62  
Cr2      Cr     0.60935      0.884901     0.14065      1.62  
Cr2      Cr     0.60935      0.3849       0.640649     1.62  
Cr2      Cr     0.109349     0.884901     0.640649     1.62  
F1       F      0.0912       0.3935       0.1588      -0.566 
F1       F      0.591199     0.893499     0.1588      -0.566 
F1       F      0.591199     0.3935       0.6588      -0.566 
F1       F      0.0912       0.893499     0.6588      -0.566 
C3       C      0.1476       0.1726       0.102399     0.11  
C3       C      0.6476       0.6726       0.102399     0.11  
C3       C      0.6476       0.1726       0.6024       0.11  
C3       C      0.1476       0.6726       0.6024       0.11  
Cr1      Cr     0.14065      0.3849       0.109349     1.859 
Cr1      Cr     0.640649     0.884901     0.109349     1.859 
Cr1      Cr     0.640649     0.3849       0.60935      1.859 
Cr1      Cr     0.14065      0.884901     0.60935      1.859 
C3       C      0.102399     0.1726       0.1476       0.11  
C3       C      0.6024       0.6726       0.1476       0.11  
C3       C      0.6024       0.1726       0.6476       0.11  
C3       C      0.102399     0.6726       0.6476       0.11  
Cr1      Cr     0.359351     0.359351     0.1349       1.859 
Cr1      Cr     0.85935      0.85935      0.1349       1.859 
Cr1      Cr     0.85935      0.359351     0.6349       1.859 
Cr1      Cr     0.359351     0.85935      0.6349       1.859 
C3       C      0.897601     0.3976       0.422599     0.11  
C3       C      0.3976       0.897601     0.422599     0.11  
C3       C      0.3976       0.3976       0.9226       0.11  
C3       C      0.897601     0.897601     0.9226       0.11  
Cr1      Cr     0.39065      0.39065      0.1349       1.859 
Cr1      Cr     0.890651     0.890651     0.1349       1.859 
Cr1      Cr     0.890651     0.39065      0.6349       1.859 
Cr1      Cr     0.39065      0.890651     0.6349       1.859 
C3       C      0.8524       0.3524       0.422599     0.11  
C3       C      0.3524       0.8524       0.422599     0.11  
C3       C      0.3524       0.3524       0.9226       0.11  
C3       C      0.8524       0.8524       0.9226       0.11  
Cr2      Cr     0.85935      0.39065      0.115099     1.62  
Cr2      Cr     0.359351     0.890651     0.115099     1.62  
Cr2      Cr     0.359351     0.39065      0.6151       1.62  
Cr2      Cr     0.85935      0.890651     0.6151       1.62  
F1       F      0.8412       0.408801     0.106501    -0.566 
F1       F      0.3412       0.9088       0.106501    -0.566 
F1       F      0.3412       0.408801     0.6065      -0.566 
F1       F      0.8412       0.9088       0.6065      -0.566 
C3       C      0.897601     0.3524       0.3274       0.11  
C3       C      0.3976       0.8524       0.3274       0.11  
C3       C      0.3976       0.3524       0.8274       0.11  
C3       C      0.897601     0.8524       0.8274       0.11  
Cr1      Cr     0.890651     0.359351     0.115099     1.859 
Cr1      Cr     0.39065      0.85935      0.115099     1.859 
Cr1      Cr     0.39065      0.359351     0.6151       1.859 
Cr1      Cr     0.890651     0.85935      0.6151       1.859 
C3       C      0.8524       0.3976       0.3274       0.11  
C3       C      0.3524       0.897601     0.3274       0.11  
C3       C      0.3524       0.3976       0.8274       0.11  
C3       C      0.8524       0.897601     0.8274       0.11  
Cr1      Cr     0.85935      0.115099     0.39065      1.859 
Cr1      Cr     0.359351     0.6151       0.39065      1.859 
Cr1      Cr     0.359351     0.115099     0.890651     1.859 
Cr1      Cr     0.85935      0.6151       0.890651     1.859 
C3       C      0.897601     0.3274       0.3524       0.11  
C3       C      0.3976       0.8274       0.3524       0.11  
C3       C      0.3976       0.3274       0.8524       0.11  
C3       C      0.897601     0.8274       0.8524       0.11  
Cr2      Cr     0.890651     0.115099     0.359351     1.62  
Cr2      Cr     0.39065      0.6151       0.359351     1.62  
Cr2      Cr     0.39065      0.115099     0.85935      1.62  
Cr2      Cr     0.890651     0.6151       0.85935      1.62  
F1       F      0.9088       0.106501     0.3412      -0.566 
F1       F      0.408801     0.6065       0.3412      -0.566 
F1       F      0.408801     0.106501     0.8412      -0.566 
F1       F      0.9088       0.6065       0.8412      -0.566 
C3       C      0.8524       0.3274       0.3976       0.11  
C3       C      0.3524       0.8274       0.3976       0.11  
C3       C      0.3524       0.3274       0.897601     0.11  
C3       C      0.8524       0.8274       0.897601     0.11  
Cr1      Cr     0.39065      0.1349       0.39065      1.859 
Cr1      Cr     0.890651     0.6349       0.39065      1.859 
Cr1      Cr     0.890651     0.1349       0.890651     1.859 
Cr1      Cr     0.39065      0.6349       0.890651     1.859 
C3       C      0.8524       0.422599     0.3524       0.11  
C3       C      0.3524       0.9226       0.3524       0.11  
C3       C      0.3524       0.422599     0.8524       0.11  
C3       C      0.8524       0.9226       0.8524       0.11  
Cr2      Cr     0.359351     0.1349       0.359351     1.62  
Cr2      Cr     0.85935      0.6349       0.359351     1.62  
Cr2      Cr     0.85935      0.1349       0.85935      1.62  
Cr2      Cr     0.359351     0.6349       0.85935      1.62  
F1       F      0.3412       0.1435       0.3412      -0.566 
F1       F      0.8412       0.6435       0.3412      -0.566 
F1       F      0.8412       0.1435       0.8412      -0.566 
F1       F      0.3412       0.6435       0.8412      -0.566 
C3       C      0.897601     0.422599     0.3976       0.11  
C3       C      0.3976       0.9226       0.3976       0.11  
C3       C      0.3976       0.422599     0.897601     0.11  
C3       C      0.897601     0.9226       0.897601     0.11  
Cr2      Cr     0.6151       0.359351     0.39065      1.62  
Cr2      Cr     0.115099     0.85935      0.39065      1.62  
Cr2      Cr     0.115099     0.359351     0.890651     1.62  
Cr2      Cr     0.6151       0.85935      0.890651     1.62  
F1       F      0.6065       0.3412       0.408801    -0.566 
F1       F      0.106501     0.8412       0.408801    -0.566 
F1       F      0.106501     0.3412       0.9088      -0.566 
F1       F      0.6065       0.8412       0.9088      -0.566 
C3       C      0.8274       0.3976       0.3524       0.11  
C3       C      0.3274       0.897601     0.3524       0.11  
C3       C      0.3274       0.3976       0.8524       0.11  
C3       C      0.8274       0.897601     0.8524       0.11  
Cr1      Cr     0.6151       0.39065      0.359351     1.859 
Cr1      Cr     0.115099     0.890651     0.359351     1.859 
Cr1      Cr     0.115099     0.39065      0.85935      1.859 
Cr1      Cr     0.6151       0.890651     0.85935      1.859 
C3       C      0.8274       0.3524       0.3976       0.11  
C3       C      0.3274       0.8524       0.3976       0.11  
C3       C      0.3274       0.3524       0.897601     0.11  
C3       C      0.8274       0.8524       0.897601     0.11  
Cr1      Cr     0.1349       0.359351     0.359351     1.859 
Cr1      Cr     0.6349       0.85935      0.359351     1.859 
Cr1      Cr     0.6349       0.359351     0.85935      1.859 
Cr1      Cr     0.1349       0.85935      0.85935      1.859 
C3       C      0.9226       0.3976       0.3976       0.11  
C3       C      0.422599     0.897601     0.3976       0.11  
C3       C      0.422599     0.3976       0.897601     0.11  
C3       C      0.9226       0.897601     0.897601     0.11  
Cr2      Cr     0.1349       0.39065      0.39065      1.62  
Cr2      Cr     0.6349       0.890651     0.39065      1.62  
Cr2      Cr     0.6349       0.39065      0.890651     1.62  
Cr2      Cr     0.1349       0.890651     0.890651     1.62  
F1       F      0.1435       0.408801     0.408801    -0.566 
F1       F      0.6435       0.9088       0.408801    -0.566 
F1       F      0.6435       0.408801     0.9088      -0.566 
F1       F      0.1435       0.9088       0.9088      -0.566 
C3       C      0.9226       0.3524       0.3524       0.11  
C3       C      0.422599     0.8524       0.3524       0.11  
C3       C      0.422599     0.3524       0.8524       0.11  
C3       C      0.9226       0.8524       0.8524       0.11  
Cr2      Cr     0.577301     0.25         0.3273       1.62  
Cr2      Cr     0.0772999    0.75         0.3273       1.62  
Cr2      Cr     0.0772999    0.25         0.8273       1.62  
Cr2      Cr     0.577301     0.75         0.8273       1.62  
O1       O      0.596501     0.25         0.3465      -1.28  
O1       O      0.0965       0.75         0.3465      -1.28  
O1       O      0.0965       0.25         0.8465      -1.28  
O1       O      0.596501     0.75         0.8465      -1.28  
F1       F      0.5575       0.25         0.3075      -0.566 
F1       F      0.0575003    0.75         0.3075      -0.566 
F1       F      0.0575003    0.25         0.807501    -0.566 
F1       F      0.5575       0.75         0.807501    -0.566 
Cr2      Cr     0.6727       0            0.3273       1.62  
Cr2      Cr     0.1727       0.500001     0.3273       1.62  
Cr2      Cr     0.1727       0            0.8273       1.62  
Cr2      Cr     0.6727       0.500001     0.8273       1.62  
O1       O      0.6535       0            0.3465      -1.28  
O1       O      0.1535       0.500001     0.3465      -1.28  
O1       O      0.1535       0            0.8465      -1.28  
O1       O      0.6535       0.500001     0.8465      -1.28  
F1       F      0.6925       0            0.3075      -0.566 
F1       F      0.192499     0.500001     0.3075      -0.566 
F1       F      0.192499     0            0.807501    -0.566 
F1       F      0.6925       0.500001     0.807501    -0.566 
Cr1      Cr     0.1727       0.25         0.422699     1.859 
Cr1      Cr     0.6727       0.75         0.422699     1.859 
Cr1      Cr     0.6727       0.25         0.9227       1.859 
Cr1      Cr     0.1727       0.75         0.9227       1.859 
O1       O      0.1535       0.25         0.403501    -1.28  
O1       O      0.6535       0.75         0.403501    -1.28  
O1       O      0.6535       0.25         0.9035      -1.28  
O1       O      0.1535       0.75         0.9035      -1.28  
Cr1      Cr     0.0772999    0            0.422699     1.859 
Cr1      Cr     0.577301     0.500001     0.422699     1.859 
Cr1      Cr     0.577301     0            0.9227       1.859 
Cr1      Cr     0.0772999    0.500001     0.9227       1.859 
O1       O      0.0965       0            0.403501    -1.28  
O1       O      0.596501     0.500001     0.403501    -1.28  
O1       O      0.596501     0            0.9035      -1.28  
O1       O      0.0965       0.500001     0.9035      -1.28  
Cr2      Cr     0.8273       0.0772999    0.25         1.62  
Cr2      Cr     0.3273       0.577301     0.25         1.62  
Cr2      Cr     0.3273       0.0772999    0.75         1.62  
Cr2      Cr     0.8273       0.577301     0.75         1.62  
O1       O      0.8465       0.0965       0.25        -1.28  
O1       O      0.3465       0.596501     0.25        -1.28  
O1       O      0.3465       0.0965       0.75        -1.28  
O1       O      0.8465       0.596501     0.75        -1.28  
F1       F      0.807501     0.0575003    0.25        -0.566 
F1       F      0.3075       0.5575       0.25        -0.566 
F1       F      0.3075       0.0575003    0.75        -0.566 
F1       F      0.807501     0.5575       0.75        -0.566 
Cr1      Cr     0.8273       0.1727       0            1.859 
Cr1      Cr     0.3273       0.6727       0            1.859 
Cr1      Cr     0.3273       0.1727       0.500001     1.859 
Cr1      Cr     0.8273       0.6727       0.500001     1.859 
O1       O      0.8465       0.1535       0           -1.28  
O1       O      0.3465       0.6535       0           -1.28  
O1       O      0.3465       0.1535       0.500001    -1.28  
O1       O      0.8465       0.6535       0.500001    -1.28  
Cr2      Cr     0.422699     0.1727       0.25         1.62  
Cr2      Cr     0.9227       0.6727       0.25         1.62  
Cr2      Cr     0.9227       0.1727       0.75         1.62  
Cr2      Cr     0.422699     0.6727       0.75         1.62  
O1       O      0.403501     0.1535       0.25        -1.28  
O1       O      0.9035       0.6535       0.25        -1.28  
O1       O      0.9035       0.1535       0.75        -1.28  
O1       O      0.403501     0.6535       0.75        -1.28  
F1       F      0.4425       0.192499     0.25        -0.566 
F1       F      0.9425       0.6925       0.25        -0.566 
F1       F      0.9425       0.192499     0.75        -0.566 
F1       F      0.4425       0.6925       0.75        -0.566 
Cr1      Cr     0.422699     0.0772999    0            1.859 
Cr1      Cr     0.9227       0.577301     0            1.859 
Cr1      Cr     0.9227       0.0772999    0.500001     1.859 
Cr1      Cr     0.422699     0.577301     0.500001     1.859 
O1       O      0.403501     0.0965       0           -1.28  
O1       O      0.9035       0.596501     0           -1.28  
O1       O      0.9035       0.0965       0.500001    -1.28  
O1       O      0.403501     0.596501     0.500001    -1.28  
Cr1      Cr     0.75         0.3273       0.0772999    1.859 
Cr1      Cr     0.25         0.8273       0.0772999    1.859 
Cr1      Cr     0.25         0.3273       0.577301     1.859 
Cr1      Cr     0.75         0.8273       0.577301     1.859 
O1       O      0.75         0.3465       0.0965      -1.28  
O1       O      0.25         0.8465       0.0965      -1.28  
O1       O      0.25         0.3465       0.596501    -1.28  
O1       O      0.75         0.8465       0.596501    -1.28  
Cr2      Cr     0.500001     0.3273       0.1727       1.62  
Cr2      Cr     0            0.8273       0.1727       1.62  
Cr2      Cr     0            0.3273       0.6727       1.62  
Cr2      Cr     0.500001     0.8273       0.6727       1.62  
O1       O      0.500001     0.3465       0.1535      -1.28  
O1       O      0            0.8465       0.1535      -1.28  
O1       O      0            0.3465       0.6535      -1.28  
O1       O      0.500001     0.8465       0.6535      -1.28  
F1       F      0.500001     0.3075       0.192499    -0.566 
F1       F      0            0.807501     0.192499    -0.566 
F1       F      0            0.3075       0.6925      -0.566 
F1       F      0.500001     0.807501     0.6925      -0.566 
Cr2      Cr     0.25         0.422699     0.1727       1.62  
Cr2      Cr     0.75         0.9227       0.1727       1.62  
Cr2      Cr     0.75         0.422699     0.6727       1.62  
Cr2      Cr     0.25         0.9227       0.6727       1.62  
O1       O      0.25         0.403501     0.1535      -1.28  
O1       O      0.75         0.9035       0.1535      -1.28  
O1       O      0.75         0.403501     0.6535      -1.28  
O1       O      0.25         0.9035       0.6535      -1.28  
F1       F      0.25         0.4425       0.192499    -0.566 
F1       F      0.75         0.9425       0.192499    -0.566 
F1       F      0.75         0.4425       0.6925      -0.566 
F1       F      0.25         0.9425       0.6925      -0.566 
Cr1      Cr     0            0.422699     0.0772999    1.859 
Cr1      Cr     0.500001     0.9227       0.0772999    1.859 
Cr1      Cr     0.500001     0.422699     0.577301     1.859 
Cr1      Cr     0            0.9227       0.577301     1.859 
O1       O      0            0.403501     0.0965      -1.28  
O1       O      0.500001     0.9035       0.0965      -1.28  
O1       O      0.500001     0.403501     0.596501    -1.28  
O1       O      0            0.9035       0.596501    -1.28  
Cr1      Cr     0.422699     0.25         0.1727       1.859 
Cr1      Cr     0.9227       0.75         0.1727       1.859 
Cr1      Cr     0.9227       0.25         0.6727       1.859 
Cr1      Cr     0.422699     0.75         0.6727       1.859 
O1       O      0.403501     0.25         0.1535      -1.28  
O1       O      0.9035       0.75         0.1535      -1.28  
O1       O      0.9035       0.25         0.6535      -1.28  
O1       O      0.403501     0.75         0.6535      -1.28  
Cr1      Cr     0.8273       0            0.1727       1.859 
Cr1      Cr     0.3273       0.500001     0.1727       1.859 
Cr1      Cr     0.3273       0            0.6727       1.859 
Cr1      Cr     0.8273       0.500001     0.6727       1.859 
O1       O      0.8465       0            0.1535      -1.28  
O1       O      0.3465       0.500001     0.1535      -1.28  
O1       O      0.3465       0            0.6535      -1.28  
O1       O      0.8465       0.500001     0.6535      -1.28  
Cr2      Cr     0.8273       0.25         0.0772999    1.62  
Cr2      Cr     0.3273       0.75         0.0772999    1.62  
Cr2      Cr     0.3273       0.25         0.577301     1.62  
Cr2      Cr     0.8273       0.75         0.577301     1.62  
O1       O      0.8465       0.25         0.0965      -1.28  
O1       O      0.3465       0.75         0.0965      -1.28  
O1       O      0.3465       0.25         0.596501    -1.28  
O1       O      0.8465       0.75         0.596501    -1.28  
F1       F      0.807501     0.25         0.0575003   -0.566 
F1       F      0.3075       0.75         0.0575003   -0.566 
F1       F      0.3075       0.25         0.5575      -0.566 
F1       F      0.807501     0.75         0.5575      -0.566 
Cr2      Cr     0.422699     0            0.0772999    1.62  
Cr2      Cr     0.9227       0.500001     0.0772999    1.62  
Cr2      Cr     0.9227       0            0.577301     1.62  
Cr2      Cr     0.422699     0.500001     0.577301     1.62  
O1       O      0.403501     0            0.0965      -1.28  
O1       O      0.9035       0.500001     0.0965      -1.28  
O1       O      0.9035       0            0.596501    -1.28  
O1       O      0.403501     0.500001     0.596501    -1.28  
F1       F      0.4425       0            0.0575003   -0.566 
F1       F      0.9425       0.500001     0.0575003   -0.566 
F1       F      0.9425       0            0.5575      -0.566 
F1       F      0.4425       0.500001     0.5575      -0.566 
Cr1      Cr     0.1727       0.422699     0.25         1.859 
Cr1      Cr     0.6727       0.9227       0.25         1.859 
Cr1      Cr     0.6727       0.422699     0.75         1.859 
Cr1      Cr     0.1727       0.9227       0.75         1.859 
O1       O      0.1535       0.403501     0.25        -1.28  
O1       O      0.6535       0.9035       0.25        -1.28  
O1       O      0.6535       0.403501     0.75        -1.28  
O1       O      0.1535       0.9035       0.75        -1.28  
Cr2      Cr     0.6727       0.3273       0            1.62  
Cr2      Cr     0.1727       0.8273       0            1.62  
Cr2      Cr     0.1727       0.3273       0.500001     1.62  
Cr2      Cr     0.6727       0.8273       0.500001     1.62  
O1       O      0.6535       0.3465       0           -1.28  
O1       O      0.1535       0.8465       0           -1.28  
O1       O      0.1535       0.3465       0.500001    -1.28  
O1       O      0.6535       0.8465       0.500001    -1.28  
F1       F      0.6925       0.3075       0           -0.566 
F1       F      0.192499     0.807501     0           -0.566 
F1       F      0.192499     0.3075       0.500001    -0.566 
F1       F      0.6925       0.807501     0.500001    -0.566 
Cr1      Cr     0.577301     0.3273       0.25         1.859 
Cr1      Cr     0.0772999    0.8273       0.25         1.859 
Cr1      Cr     0.0772999    0.3273       0.75         1.859 
Cr1      Cr     0.577301     0.8273       0.75         1.859 
O1       O      0.596501     0.3465       0.25        -1.28  
O1       O      0.0965       0.8465       0.25        -1.28  
O1       O      0.0965       0.3465       0.75        -1.28  
O1       O      0.596501     0.8465       0.75        -1.28  
Cr2      Cr     0.0772999    0.422699     0            1.62  
Cr2      Cr     0.577301     0.9227       0            1.62  
Cr2      Cr     0.577301     0.422699     0.500001     1.62  
Cr2      Cr     0.0772999    0.9227       0.500001     1.62  
O1       O      0.0965       0.403501     0           -1.28  
O1       O      0.596501     0.9035       0           -1.28  
O1       O      0.596501     0.403501     0.500001    -1.28  
O1       O      0.0965       0.9035       0.500001    -1.28  
F1       F      0.0575003    0.4425       0           -0.566 
F1       F      0.5575       0.9425       0           -0.566 
F1       F      0.5575       0.4425       0.500001    -0.566 
F1       F      0.0575003    0.9425       0.500001    -0.566 
Cr2      Cr     0.25         0.1727       0.422699     1.62  
Cr2      Cr     0.75         0.6727       0.422699     1.62  
Cr2      Cr     0.75         0.1727       0.9227       1.62  
Cr2      Cr     0.25         0.6727       0.9227       1.62  
O1       O      0.25         0.1535       0.403501    -1.28  
O1       O      0.75         0.6535       0.403501    -1.28  
O1       O      0.75         0.1535       0.9035      -1.28  
O1       O      0.25         0.6535       0.9035      -1.28  
F1       F      0.25         0.192499     0.4425      -0.566 
F1       F      0.75         0.6925       0.4425      -0.566 
F1       F      0.75         0.192499     0.9425      -0.566 
F1       F      0.25         0.6925       0.9425      -0.566 
Cr1      Cr     0.500001     0.1727       0.3273       1.859 
Cr1      Cr     0            0.6727       0.3273       1.859 
Cr1      Cr     0            0.1727       0.8273       1.859 
Cr1      Cr     0.500001     0.6727       0.8273       1.859 
O1       O      0.500001     0.1535       0.3465      -1.28  
O1       O      0            0.6535       0.3465      -1.28  
O1       O      0            0.1535       0.8465      -1.28  
O1       O      0.500001     0.6535       0.8465      -1.28  
Cr1      Cr     0.75         0.0772999    0.3273       1.859 
Cr1      Cr     0.25         0.577301     0.3273       1.859 
Cr1      Cr     0.25         0.0772999    0.8273       1.859 
Cr1      Cr     0.75         0.577301     0.8273       1.859 
O1       O      0.75         0.0965       0.3465      -1.28  
O1       O      0.25         0.596501     0.3465      -1.28  
O1       O      0.25         0.0965       0.8465      -1.28  
O1       O      0.75         0.596501     0.8465      -1.28  
Cr2      Cr     0            0.0772999    0.422699     1.62  
Cr2      Cr     0.500001     0.577301     0.422699     1.62  
Cr2      Cr     0.500001     0.0772999    0.9227       1.62  
Cr2      Cr     0            0.577301     0.9227       1.62  
O1       O      0            0.0965       0.403501    -1.28  
O1       O      0.500001     0.596501     0.403501    -1.28  
O1       O      0.500001     0.0965       0.9035      -1.28  
O1       O      0            0.596501     0.9035      -1.28  
F1       F      0            0.0575003    0.4425      -0.566 
F1       F      0.500001     0.5575       0.4425      -0.566 
F1       F      0.500001     0.0575003    0.9425      -0.566 
F1       F      0            0.5575       0.9425      -0.566 
O1       O      0.1704       0.0796001    0.0796001   -1.28  
O1       O      0.6704       0.579599     0.0796001   -1.28  
O1       O      0.6704       0.0796001    0.579599    -1.28  
O1       O      0.1704       0.579599     0.579599    -1.28  
O1       O      0.0796001    0.1704       0.0796001   -1.28  
O1       O      0.579599     0.6704       0.0796001   -1.28  
O1       O      0.579599     0.1704       0.579599    -1.28  
O1       O      0.0796001    0.6704       0.579599    -1.28  
O1       O      0.0796001    0.0796001    0.1704      -1.28  
O1       O      0.579599     0.579599     0.1704      -1.28  
O1       O      0.579599     0.0796001    0.6704      -1.28  
O1       O      0.0796001    0.579599     0.6704      -1.28  
O1       O      0.1704       0.1704       0.1704      -1.28  
O1       O      0.6704       0.6704       0.1704      -1.28  
O1       O      0.6704       0.1704       0.6704      -1.28  
O1       O      0.1704       0.6704       0.6704      -1.28  
O1       O      0.8296       0.420401     0.420401    -1.28  
O1       O      0.3296       0.9204       0.420401    -1.28  
O1       O      0.3296       0.420401     0.9204      -1.28  
O1       O      0.8296       0.9204       0.9204      -1.28  
O1       O      0.9204       0.3296       0.420401    -1.28  
O1       O      0.420401     0.8296       0.420401    -1.28  
O1       O      0.420401     0.3296       0.9204      -1.28  
O1       O      0.9204       0.8296       0.9204      -1.28  
O1       O      0.8296       0.3296       0.3296      -1.28  
O1       O      0.3296       0.8296       0.3296      -1.28  
O1       O      0.3296       0.3296       0.8296      -1.28  
O1       O      0.8296       0.8296       0.8296      -1.28  
O1       O      0.9204       0.420401     0.3296      -1.28  
O1       O      0.420401     0.9204       0.3296      -1.28  
O1       O      0.420401     0.420401     0.8296      -1.28  
O1       O      0.9204       0.9204       0.8296      -1.28  
F1       F      0.374999     0.374999     0.0652007   -0.566 
F1       F      0.875        0.875        0.0652007   -0.566 
F1       F      0.875        0.374999     0.5652      -0.566 
F1       F      0.374999     0.875        0.5652      -0.566 
F1       F      0.625001     0.125        0.4348      -0.566 
F1       F      0.125        0.625001     0.4348      -0.566 
F1       F      0.125        0.125        0.934801    -0.566 
F1       F      0.625001     0.625001     0.934801    -0.566 
C2       C      0.7456       0.4826       0.0044002   -0.274 
C2       C      0.245599     0.982599     0.0044002   -0.274 
C2       C      0.245599     0.4826       0.5044      -0.274 
C2       C      0.7456       0.982599     0.5044      -0.274 
C1       C      0.732299     0.477601     0.0176996    0.848 
C1       C      0.2323       0.9776       0.0176996    0.848 
C1       C      0.2323       0.477601     0.5177       0.848 
C1       C      0.732299     0.9776       0.5177       0.848 
C2       C      0.161601     0.1361       0.0884005   -0.274 
C2       C      0.6616       0.6361       0.0884005   -0.274 
C2       C      0.6616       0.1361       0.5884      -0.274 
C2       C      0.161601     0.6361       0.5884      -0.274 
C1       C      0.1719       0.1229       0.0780995    0.848 
C1       C      0.671899     0.622901     0.0780995    0.848 
C1       C      0.671899     0.1229       0.5781       0.848 
C1       C      0.1719       0.622901     0.5781       0.848 
C2       C      0.214799     0.0926004    0.0352003   -0.274 
C2       C      0.7148       0.5926       0.0352003   -0.274 
C2       C      0.7148       0.0926004    0.5352      -0.274 
C2       C      0.214799     0.5926       0.5352      -0.274 
C3       C      0.2421       0.0866997    0.00790062   0.11  
C3       C      0.7421       0.5867       0.00790062   0.11  
C3       C      0.7421       0.0866997    0.5079       0.11  
C3       C      0.2421       0.5867       0.5079       0.11  
C1       C      0.2008       0.0948005    0.0492005    0.848 
C1       C      0.7008       0.5948       0.0492005    0.848 
C1       C      0.7008       0.0948005    0.5492       0.848 
C1       C      0.2008       0.5948       0.5492       0.848 
H1       H      0.752471     0.0868451    0.49753      0.1   
H1       H      0.25247      0.586844     0.49753      0.1   
H1       H      0.25247      0.0868451    0.99753      0.1   
H1       H      0.752471     0.586844     0.99753      0.1   
C2       C      0.0044002    0.2674       0.0044002   -0.274 
C2       C      0.5044       0.7674       0.0044002   -0.274 
C2       C      0.5044       0.2674       0.5044      -0.274 
C2       C      0.0044002    0.7674       0.5044      -0.274 
C1       C      0.0176996    0.2724       0.0176996    0.848 
C1       C      0.5177       0.772401     0.0176996    0.848 
C1       C      0.5177       0.2724       0.5177       0.848 
C1       C      0.0176996    0.772401     0.5177       0.848 
C2       C      0.0884005    0.113901     0.0884005   -0.274 
C2       C      0.5884       0.6139       0.0884005   -0.274 
C2       C      0.5884       0.113901     0.5884      -0.274 
C2       C      0.0884005    0.6139       0.5884      -0.274 
C1       C      0.0780995    0.1271       0.0780995    0.848 
C1       C      0.5781       0.6271       0.0780995    0.848 
C1       C      0.5781       0.1271       0.5781       0.848 
C1       C      0.0780995    0.6271       0.5781       0.848 
C2       C      0.0352003    0.157401     0.0352003   -0.274 
C2       C      0.5352       0.6574       0.0352003   -0.274 
C2       C      0.5352       0.157401     0.5352      -0.274 
C2       C      0.0352003    0.6574       0.5352      -0.274 
C3       C      0.00790062   0.1633       0.00790062   0.11  
C3       C      0.5079       0.663301     0.00790062   0.11  
C3       C      0.5079       0.1633       0.5079       0.11  
C3       C      0.00790062   0.663301     0.5079       0.11  
C1       C      0.0492005    0.1552       0.0492005    0.848 
C1       C      0.5492       0.6552       0.0492005    0.848 
C1       C      0.5492       0.1552       0.5492       0.848 
C1       C      0.0492005    0.6552       0.5492       0.848 
H1       H      0.49753      0.163155     0.49753      0.1   
H1       H      0.99753      0.663155     0.49753      0.1   
H1       H      0.99753      0.163155     0.99753      0.1   
H1       H      0.49753      0.663155     0.99753      0.1   
C2       C      0.5044       0.4826       0.245599    -0.274 
C2       C      0.0044002    0.982599     0.245599    -0.274 
C2       C      0.0044002    0.4826       0.7456      -0.274 
C2       C      0.5044       0.982599     0.7456      -0.274 
C1       C      0.5177       0.477601     0.2323       0.848 
C1       C      0.0176996    0.9776       0.2323       0.848 
C1       C      0.0176996    0.477601     0.732299     0.848 
C1       C      0.5177       0.9776       0.732299     0.848 
C2       C      0.0884005    0.1361       0.161601    -0.274 
C2       C      0.5884       0.6361       0.161601    -0.274 
C2       C      0.5884       0.1361       0.6616      -0.274 
C2       C      0.0884005    0.6361       0.6616      -0.274 
C1       C      0.0780995    0.1229       0.1719       0.848 
C1       C      0.5781       0.622901     0.1719       0.848 
C1       C      0.5781       0.1229       0.671899     0.848 
C1       C      0.0780995    0.622901     0.671899     0.848 
C2       C      0.0352003    0.0926004    0.214799    -0.274 
C2       C      0.5352       0.5926       0.214799    -0.274 
C2       C      0.5352       0.0926004    0.7148      -0.274 
C2       C      0.0352003    0.5926       0.7148      -0.274 
C3       C      0.00790062   0.0866997    0.2421       0.11  
C3       C      0.5079       0.5867       0.2421       0.11  
C3       C      0.5079       0.0866997    0.7421       0.11  
C3       C      0.00790062   0.5867       0.7421       0.11  
C1       C      0.0492005    0.0948005    0.2008       0.848 
C1       C      0.5492       0.5948       0.2008       0.848 
C1       C      0.5492       0.0948005    0.7008       0.848 
C1       C      0.0492005    0.5948       0.7008       0.848 
H1       H      0.99753      0.0868451    0.25247      0.1   
H1       H      0.49753      0.586844     0.25247      0.1   
H1       H      0.49753      0.0868451    0.752471     0.1   
H1       H      0.99753      0.586844     0.752471     0.1   
C2       C      0.245599     0.2674       0.245599    -0.274 
C2       C      0.7456       0.7674       0.245599    -0.274 
C2       C      0.7456       0.2674       0.7456      -0.274 
C2       C      0.245599     0.7674       0.7456      -0.274 
C1       C      0.2323       0.2724       0.2323       0.848 
C1       C      0.732299     0.772401     0.2323       0.848 
C1       C      0.732299     0.2724       0.732299     0.848 
C1       C      0.2323       0.772401     0.732299     0.848 
C2       C      0.161601     0.113901     0.161601    -0.274 
C2       C      0.6616       0.6139       0.161601    -0.274 
C2       C      0.6616       0.113901     0.6616      -0.274 
C2       C      0.161601     0.6139       0.6616      -0.274 
C1       C      0.1719       0.1271       0.1719       0.848 
C1       C      0.671899     0.6271       0.1719       0.848 
C1       C      0.671899     0.1271       0.671899     0.848 
C1       C      0.1719       0.6271       0.671899     0.848 
C2       C      0.214799     0.157401     0.214799    -0.274 
C2       C      0.7148       0.6574       0.214799    -0.274 
C2       C      0.7148       0.157401     0.7148      -0.274 
C2       C      0.214799     0.6574       0.7148      -0.274 
C3       C      0.2421       0.1633       0.2421       0.11  
C3       C      0.7421       0.663301     0.2421       0.11  
C3       C      0.7421       0.1633       0.7421       0.11  
C3       C      0.2421       0.663301     0.7421       0.11  
C1       C      0.2008       0.1552       0.2008       0.848 
C1       C      0.7008       0.6552       0.2008       0.848 
C1       C      0.7008       0.1552       0.7008       0.848 
C1       C      0.2008       0.6552       0.7008       0.848 
H1       H      0.25247      0.163155     0.25247      0.1   
H1       H      0.752471     0.663155     0.25247      0.1   
H1       H      0.752471     0.163155     0.752471     0.1   
H1       H      0.25247      0.663155     0.752471     0.1   
C2       C      0.5044       0.245599     0.4826      -0.274 
C2       C      0.0044002    0.7456       0.4826      -0.274 
C2       C      0.0044002    0.245599     0.982599    -0.274 
C2       C      0.5044       0.7456       0.982599    -0.274 
C1       C      0.5177       0.2323       0.477601     0.848 
C1       C      0.0176996    0.732299     0.477601     0.848 
C1       C      0.0176996    0.2323       0.9776       0.848 
C1       C      0.5177       0.732299     0.9776       0.848 
C2       C      0.0884005    0.161601     0.1361      -0.274 
C2       C      0.5884       0.6616       0.1361      -0.274 
C2       C      0.5884       0.161601     0.6361      -0.274 
C2       C      0.0884005    0.6616       0.6361      -0.274 
C1       C      0.0780995    0.1719       0.1229       0.848 
C1       C      0.5781       0.671899     0.1229       0.848 
C1       C      0.5781       0.1719       0.622901     0.848 
C1       C      0.0780995    0.671899     0.622901     0.848 
C2       C      0.0352003    0.214799     0.0926004   -0.274 
C2       C      0.5352       0.7148       0.0926004   -0.274 
C2       C      0.5352       0.214799     0.5926      -0.274 
C2       C      0.0352003    0.7148       0.5926      -0.274 
C3       C      0.00790062   0.2421       0.0866997    0.11  
C3       C      0.5079       0.7421       0.0866997    0.11  
C3       C      0.5079       0.2421       0.5867       0.11  
C3       C      0.00790062   0.7421       0.5867       0.11  
C1       C      0.0492005    0.2008       0.0948005    0.848 
C1       C      0.5492       0.7008       0.0948005    0.848 
C1       C      0.5492       0.2008       0.5948       0.848 
C1       C      0.0492005    0.7008       0.5948       0.848 
H1       H      0.99753      0.25247      0.0868451    0.1   
H1       H      0.49753      0.752471     0.0868451    0.1   
H1       H      0.49753      0.25247      0.586844     0.1   
H1       H      0.99753      0.752471     0.586844     0.1   
C2       C      0.0044002    0.0044002    0.2674      -0.274 
C2       C      0.5044       0.5044       0.2674      -0.274 
C2       C      0.5044       0.0044002    0.7674      -0.274 
C2       C      0.0044002    0.5044       0.7674      -0.274 
C1       C      0.0176996    0.0176996    0.2724       0.848 
C1       C      0.5177       0.5177       0.2724       0.848 
C1       C      0.5177       0.0176996    0.772401     0.848 
C1       C      0.0176996    0.5177       0.772401     0.848 
C2       C      0.0884005    0.0884005    0.113901    -0.274 
C2       C      0.5884       0.5884       0.113901    -0.274 
C2       C      0.5884       0.0884005    0.6139      -0.274 
C2       C      0.0884005    0.5884       0.6139      -0.274 
C1       C      0.0780995    0.0780995    0.1271       0.848 
C1       C      0.5781       0.5781       0.1271       0.848 
C1       C      0.5781       0.0780995    0.6271       0.848 
C1       C      0.0780995    0.5781       0.6271       0.848 
C2       C      0.0352003    0.0352003    0.157401    -0.274 
C2       C      0.5352       0.5352       0.157401    -0.274 
C2       C      0.5352       0.0352003    0.6574      -0.274 
C2       C      0.0352003    0.5352       0.6574      -0.274 
C3       C      0.00790062   0.00790062   0.1633       0.11  
C3       C      0.5079       0.5079       0.1633       0.11  
C3       C      0.5079       0.00790062   0.663301     0.11  
C3       C      0.00790062   0.5079       0.663301     0.11  
C1       C      0.0492005    0.0492005    0.1552       0.848 
C1       C      0.5492       0.5492       0.1552       0.848 
C1       C      0.5492       0.0492005    0.6552       0.848 
C1       C      0.0492005    0.5492       0.6552       0.848 
H1       H      0.49753      0.49753      0.163155     0.1   
H1       H      0.99753      0.99753      0.163155     0.1   
H1       H      0.99753      0.49753      0.663155     0.1   
H1       H      0.49753      0.99753      0.663155     0.1   
C2       C      0.7456       0.0044002    0.4826      -0.274 
C2       C      0.245599     0.5044       0.4826      -0.274 
C2       C      0.245599     0.0044002    0.982599    -0.274 
C2       C      0.7456       0.5044       0.982599    -0.274 
C1       C      0.732299     0.0176996    0.477601     0.848 
C1       C      0.2323       0.5177       0.477601     0.848 
C1       C      0.2323       0.0176996    0.9776       0.848 
C1       C      0.732299     0.5177       0.9776       0.848 
C2       C      0.161601     0.0884005    0.1361      -0.274 
C2       C      0.6616       0.5884       0.1361      -0.274 
C2       C      0.6616       0.0884005    0.6361      -0.274 
C2       C      0.161601     0.5884       0.6361      -0.274 
C1       C      0.1719       0.0780995    0.1229       0.848 
C1       C      0.671899     0.5781       0.1229       0.848 
C1       C      0.671899     0.0780995    0.622901     0.848 
C1       C      0.1719       0.5781       0.622901     0.848 
C2       C      0.214799     0.0352003    0.0926004   -0.274 
C2       C      0.7148       0.5352       0.0926004   -0.274 
C2       C      0.7148       0.0352003    0.5926      -0.274 
C2       C      0.214799     0.5352       0.5926      -0.274 
C3       C      0.2421       0.00790062   0.0866997    0.11  
C3       C      0.7421       0.5079       0.0866997    0.11  
C3       C      0.7421       0.00790062   0.5867       0.11  
C3       C      0.2421       0.5079       0.5867       0.11  
C1       C      0.2008       0.0492005    0.0948005    0.848 
C1       C      0.7008       0.5492       0.0948005    0.848 
C1       C      0.7008       0.0492005    0.5948       0.848 
C1       C      0.2008       0.5492       0.5948       0.848 
H1       H      0.752471     0.49753      0.0868451    0.1   
H1       H      0.25247      0.99753      0.0868451    0.1   
H1       H      0.25247      0.49753      0.586844     0.1   
H1       H      0.752471     0.99753      0.586844     0.1   
C2       C      0.245599     0.245599     0.2674      -0.274 
C2       C      0.7456       0.7456       0.2674      -0.274 
C2       C      0.7456       0.245599     0.7674      -0.274 
C2       C      0.245599     0.7456       0.7674      -0.274 
C1       C      0.2323       0.2323       0.2724       0.848 
C1       C      0.732299     0.732299     0.2724       0.848 
C1       C      0.732299     0.2323       0.772401     0.848 
C1       C      0.2323       0.732299     0.772401     0.848 
C2       C      0.161601     0.161601     0.113901    -0.274 
C2       C      0.6616       0.6616       0.113901    -0.274 
C2       C      0.6616       0.161601     0.6139      -0.274 
C2       C      0.161601     0.6616       0.6139      -0.274 
C1       C      0.1719       0.1719       0.1271       0.848 
C1       C      0.671899     0.671899     0.1271       0.848 
C1       C      0.671899     0.1719       0.6271       0.848 
C1       C      0.1719       0.671899     0.6271       0.848 
C2       C      0.214799     0.214799     0.157401    -0.274 
C2       C      0.7148       0.7148       0.157401    -0.274 
C2       C      0.7148       0.214799     0.6574      -0.274 
C2       C      0.214799     0.7148       0.6574      -0.274 
C3       C      0.2421       0.2421       0.1633       0.11  
C3       C      0.7421       0.7421       0.1633       0.11  
C3       C      0.7421       0.2421       0.663301     0.11  
C3       C      0.2421       0.7421       0.663301     0.11  
C1       C      0.2008       0.2008       0.1552       0.848 
C1       C      0.7008       0.7008       0.1552       0.848 
C1       C      0.7008       0.2008       0.6552       0.848 
C1       C      0.2008       0.7008       0.6552       0.848 
H1       H      0.25247      0.25247      0.163155     0.1   
H1       H      0.752471     0.752471     0.163155     0.1   
H1       H      0.752471     0.25247      0.663155     0.1   
H1       H      0.25247      0.752471     0.663155     0.1   
C2       C      0.982599     0.0044002    0.245599    -0.274 
C2       C      0.4826       0.5044       0.245599    -0.274 
C2       C      0.4826       0.0044002    0.7456      -0.274 
C2       C      0.982599     0.5044       0.7456      -0.274 
C1       C      0.9776       0.0176996    0.2323       0.848 
C1       C      0.477601     0.5177       0.2323       0.848 
C1       C      0.477601     0.0176996    0.732299     0.848 
C1       C      0.9776       0.5177       0.732299     0.848 
C2       C      0.1361       0.0884005    0.161601    -0.274 
C2       C      0.6361       0.5884       0.161601    -0.274 
C2       C      0.6361       0.0884005    0.6616      -0.274 
C2       C      0.1361       0.5884       0.6616      -0.274 
C1       C      0.1229       0.0780995    0.1719       0.848 
C1       C      0.622901     0.5781       0.1719       0.848 
C1       C      0.622901     0.0780995    0.671899     0.848 
C1       C      0.1229       0.5781       0.671899     0.848 
C2       C      0.0926004    0.0352003    0.214799    -0.274 
C2       C      0.5926       0.5352       0.214799    -0.274 
C2       C      0.5926       0.0352003    0.7148      -0.274 
C2       C      0.0926004    0.5352       0.7148      -0.274 
C3       C      0.0866997    0.00790062   0.2421       0.11  
C3       C      0.5867       0.5079       0.2421       0.11  
C3       C      0.5867       0.00790062   0.7421       0.11  
C3       C      0.0866997    0.5079       0.7421       0.11  
C1       C      0.0948005    0.0492005    0.2008       0.848 
C1       C      0.5948       0.5492       0.2008       0.848 
C1       C      0.5948       0.0492005    0.7008       0.848 
C1       C      0.0948005    0.5492       0.7008       0.848 
H1       H      0.586844     0.49753      0.25247      0.1   
H1       H      0.0868451    0.99753      0.25247      0.1   
H1       H      0.0868451    0.49753      0.752471     0.1   
H1       H      0.586844     0.99753      0.752471     0.1   
C2       C      0.2674       0.0044002    0.0044002   -0.274 
C2       C      0.7674       0.5044       0.0044002   -0.274 
C2       C      0.7674       0.0044002    0.5044      -0.274 
C2       C      0.2674       0.5044       0.5044      -0.274 
C1       C      0.2724       0.0176996    0.0176996    0.848 
C1       C      0.772401     0.5177       0.0176996    0.848 
C1       C      0.772401     0.0176996    0.5177       0.848 
C1       C      0.2724       0.5177       0.5177       0.848 
C2       C      0.113901     0.0884005    0.0884005   -0.274 
C2       C      0.6139       0.5884       0.0884005   -0.274 
C2       C      0.6139       0.0884005    0.5884      -0.274 
C2       C      0.113901     0.5884       0.5884      -0.274 
C1       C      0.1271       0.0780995    0.0780995    0.848 
C1       C      0.6271       0.5781       0.0780995    0.848 
C1       C      0.6271       0.0780995    0.5781       0.848 
C1       C      0.1271       0.5781       0.5781       0.848 
C2       C      0.157401     0.0352003    0.0352003   -0.274 
C2       C      0.6574       0.5352       0.0352003   -0.274 
C2       C      0.6574       0.0352003    0.5352      -0.274 
C2       C      0.157401     0.5352       0.5352      -0.274 
C3       C      0.1633       0.00790062   0.00790062   0.11  
C3       C      0.663301     0.5079       0.00790062   0.11  
C3       C      0.663301     0.00790062   0.5079       0.11  
C3       C      0.1633       0.5079       0.5079       0.11  
C1       C      0.1552       0.0492005    0.0492005    0.848 
C1       C      0.6552       0.5492       0.0492005    0.848 
C1       C      0.6552       0.0492005    0.5492       0.848 
C1       C      0.1552       0.5492       0.5492       0.848 
H1       H      0.163155     0.49753      0.49753      0.1   
H1       H      0.663155     0.99753      0.49753      0.1   
H1       H      0.663155     0.49753      0.99753      0.1   
H1       H      0.163155     0.99753      0.99753      0.1   
C2       C      0.982599     0.245599     0.0044002   -0.274 
C2       C      0.4826       0.7456       0.0044002   -0.274 
C2       C      0.4826       0.245599     0.5044      -0.274 
C2       C      0.982599     0.7456       0.5044      -0.274 
C1       C      0.9776       0.2323       0.0176996    0.848 
C1       C      0.477601     0.732299     0.0176996    0.848 
C1       C      0.477601     0.2323       0.5177       0.848 
C1       C      0.9776       0.732299     0.5177       0.848 
C2       C      0.1361       0.161601     0.0884005   -0.274 
C2       C      0.6361       0.6616       0.0884005   -0.274 
C2       C      0.6361       0.161601     0.5884      -0.274 
C2       C      0.1361       0.6616       0.5884      -0.274 
C1       C      0.1229       0.1719       0.0780995    0.848 
C1       C      0.622901     0.671899     0.0780995    0.848 
C1       C      0.622901     0.1719       0.5781       0.848 
C1       C      0.1229       0.671899     0.5781       0.848 
C2       C      0.0926004    0.214799     0.0352003   -0.274 
C2       C      0.5926       0.7148       0.0352003   -0.274 
C2       C      0.5926       0.214799     0.5352      -0.274 
C2       C      0.0926004    0.7148       0.5352      -0.274 
C3       C      0.0866997    0.2421       0.00790062   0.11  
C3       C      0.5867       0.7421       0.00790062   0.11  
C3       C      0.5867       0.2421       0.5079       0.11  
C3       C      0.0866997    0.7421       0.5079       0.11  
C1       C      0.0948005    0.2008       0.0492005    0.848 
C1       C      0.5948       0.7008       0.0492005    0.848 
C1       C      0.5948       0.2008       0.5492       0.848 
C1       C      0.0948005    0.7008       0.5492       0.848 
H1       H      0.586844     0.25247      0.49753      0.1   
H1       H      0.0868451    0.752471     0.49753      0.1   
H1       H      0.0868451    0.25247      0.99753      0.1   
H1       H      0.586844     0.752471     0.99753      0.1   
C2       C      0.2674       0.245599     0.245599    -0.274 
C2       C      0.7674       0.7456       0.245599    -0.274 
C2       C      0.7674       0.245599     0.7456      -0.274 
C2       C      0.2674       0.7456       0.7456      -0.274 
C1       C      0.2724       0.2323       0.2323       0.848 
C1       C      0.772401     0.732299     0.2323       0.848 
C1       C      0.772401     0.2323       0.732299     0.848 
C1       C      0.2724       0.732299     0.732299     0.848 
C2       C      0.113901     0.161601     0.161601    -0.274 
C2       C      0.6139       0.6616       0.161601    -0.274 
C2       C      0.6139       0.161601     0.6616      -0.274 
C2       C      0.113901     0.6616       0.6616      -0.274 
C1       C      0.1271       0.1719       0.1719       0.848 
C1       C      0.6271       0.671899     0.1719       0.848 
C1       C      0.6271       0.1719       0.671899     0.848 
C1       C      0.1271       0.671899     0.671899     0.848 
C2       C      0.157401     0.214799     0.214799    -0.274 
C2       C      0.6574       0.7148       0.214799    -0.274 
C2       C      0.6574       0.214799     0.7148      -0.274 
C2       C      0.157401     0.7148       0.7148      -0.274 
C3       C      0.1633       0.2421       0.2421       0.11  
C3       C      0.663301     0.7421       0.2421       0.11  
C3       C      0.663301     0.2421       0.7421       0.11  
C3       C      0.1633       0.7421       0.7421       0.11  
C1       C      0.1552       0.2008       0.2008       0.848 
C1       C      0.6552       0.7008       0.2008       0.848 
C1       C      0.6552       0.2008       0.7008       0.848 
C1       C      0.1552       0.7008       0.7008       0.848 
H1       H      0.163155     0.25247      0.25247      0.1   
H1       H      0.663155     0.752471     0.25247      0.1   
H1       H      0.663155     0.25247      0.752471     0.1   
H1       H      0.163155     0.752471     0.752471     0.1   
C2       C      0.7326       0.4956       0.4956      -0.274 
C2       C      0.2326       0.9956       0.4956      -0.274 
C2       C      0.2326       0.4956       0.9956      -0.274 
C2       C      0.7326       0.9956       0.9956      -0.274 
C1       C      0.7276       0.4823       0.4823       0.848 
C1       C      0.227599     0.9823       0.4823       0.848 
C1       C      0.227599     0.4823       0.9823       0.848 
C1       C      0.7276       0.9823       0.9823       0.848 
C2       C      0.886099     0.4116       0.4116      -0.274 
C2       C      0.3861       0.9116       0.4116      -0.274 
C2       C      0.3861       0.4116       0.9116      -0.274 
C2       C      0.886099     0.9116       0.9116      -0.274 
C1       C      0.8729       0.4219       0.4219       0.848 
C1       C      0.3729       0.9219       0.4219       0.848 
C1       C      0.3729       0.4219       0.9219       0.848 
C1       C      0.8729       0.9219       0.9219       0.848 
C2       C      0.842599     0.4648       0.4648      -0.274 
C2       C      0.3426       0.9648       0.4648      -0.274 
C2       C      0.3426       0.4648       0.9648      -0.274 
C2       C      0.842599     0.9648       0.9648      -0.274 
C3       C      0.8367       0.4921       0.4921       0.11  
C3       C      0.336699     0.992099     0.4921       0.11  
C3       C      0.336699     0.4921       0.992099     0.11  
C3       C      0.8367       0.992099     0.992099     0.11  
C1       C      0.8448       0.4508       0.4508       0.848 
C1       C      0.3448       0.950799     0.4508       0.848 
C1       C      0.3448       0.4508       0.950799     0.848 
C1       C      0.8448       0.950799     0.950799     0.848 
H1       H      0.836845     0.00247031   0.00247031   0.1   
H1       H      0.336845     0.50247      0.00247031   0.1   
H1       H      0.336845     0.00247031   0.50247      0.1   
H1       H      0.836845     0.50247      0.50247      0.1   
C2       C      0.0174006    0.2544       0.4956      -0.274 
C2       C      0.5174       0.754401     0.4956      -0.274 
C2       C      0.5174       0.2544       0.9956      -0.274 
C2       C      0.0174006    0.754401     0.9956      -0.274 
C1       C      0.0224002    0.267701     0.4823       0.848 
C1       C      0.522399     0.7677       0.4823       0.848 
C1       C      0.522399     0.267701     0.9823       0.848 
C1       C      0.0224002    0.7677       0.9823       0.848 
C2       C      0.8639       0.3384       0.4116      -0.274 
C2       C      0.3639       0.838399     0.4116      -0.274 
C2       C      0.3639       0.3384       0.9116      -0.274 
C2       C      0.8639       0.838399     0.9116      -0.274 
C1       C      0.8771       0.328101     0.4219       0.848 
C1       C      0.377099     0.8281       0.4219       0.848 
C1       C      0.377099     0.328101     0.9219       0.848 
C1       C      0.8771       0.8281       0.9219       0.848 
C2       C      0.9074       0.2852       0.4648      -0.274 
C2       C      0.4074       0.785201     0.4648      -0.274 
C2       C      0.4074       0.2852       0.9648      -0.274 
C2       C      0.9074       0.785201     0.9648      -0.274 
C3       C      0.9133       0.2579       0.4921       0.11  
C3       C      0.4133       0.7579       0.4921       0.11  
C3       C      0.4133       0.2579       0.992099     0.11  
C3       C      0.9133       0.7579       0.992099     0.11  
C1       C      0.905199     0.2992       0.4508       0.848 
C1       C      0.4052       0.7992       0.4508       0.848 
C1       C      0.4052       0.2992       0.950799     0.848 
C1       C      0.905199     0.7992       0.950799     0.848 
H1       H      0.413156     0.247529     0.00247031   0.1   
H1       H      0.913155     0.74753      0.00247031   0.1   
H1       H      0.913155     0.247529     0.50247      0.1   
H1       H      0.413156     0.74753      0.50247      0.1   
C2       C      0.7326       0.2544       0.2544      -0.274 
C2       C      0.2326       0.754401     0.2544      -0.274 
C2       C      0.2326       0.2544       0.754401    -0.274 
C2       C      0.7326       0.754401     0.754401    -0.274 
C1       C      0.7276       0.267701     0.267701     0.848 
C1       C      0.227599     0.7677       0.267701     0.848 
C1       C      0.227599     0.267701     0.7677       0.848 
C1       C      0.7276       0.7677       0.7677       0.848 
C2       C      0.886099     0.3384       0.3384      -0.274 
C2       C      0.3861       0.838399     0.3384      -0.274 
C2       C      0.3861       0.3384       0.838399    -0.274 
C2       C      0.886099     0.838399     0.838399    -0.274 
C1       C      0.8729       0.328101     0.328101     0.848 
C1       C      0.3729       0.8281       0.328101     0.848 
C1       C      0.3729       0.328101     0.8281       0.848 
C1       C      0.8729       0.8281       0.8281       0.848 
C2       C      0.842599     0.2852       0.2852      -0.274 
C2       C      0.3426       0.785201     0.2852      -0.274 
C2       C      0.3426       0.2852       0.785201    -0.274 
C2       C      0.842599     0.785201     0.785201    -0.274 
C3       C      0.8367       0.2579       0.2579       0.11  
C3       C      0.336699     0.7579       0.2579       0.11  
C3       C      0.336699     0.2579       0.7579       0.11  
C3       C      0.8367       0.7579       0.7579       0.11  
C1       C      0.8448       0.2992       0.2992       0.848 
C1       C      0.3448       0.7992       0.2992       0.848 
C1       C      0.3448       0.2992       0.7992       0.848 
C1       C      0.8448       0.7992       0.7992       0.848 
H1       H      0.836845     0.247529     0.247529     0.1   
H1       H      0.336845     0.74753      0.247529     0.1   
H1       H      0.336845     0.247529     0.74753      0.1   
H1       H      0.836845     0.74753      0.74753      0.1   
C2       C      0.0174006    0.4956       0.2544      -0.274 
C2       C      0.5174       0.9956       0.2544      -0.274 
C2       C      0.5174       0.4956       0.754401    -0.274 
C2       C      0.0174006    0.9956       0.754401    -0.274 
C1       C      0.0224002    0.4823       0.267701     0.848 
C1       C      0.522399     0.9823       0.267701     0.848 
C1       C      0.522399     0.4823       0.7677       0.848 
C1       C      0.0224002    0.9823       0.7677       0.848 
C2       C      0.8639       0.4116       0.3384      -0.274 
C2       C      0.3639       0.9116       0.3384      -0.274 
C2       C      0.3639       0.4116       0.838399    -0.274 
C2       C      0.8639       0.9116       0.838399    -0.274 
C1       C      0.8771       0.4219       0.328101     0.848 
C1       C      0.377099     0.9219       0.328101     0.848 
C1       C      0.377099     0.4219       0.8281       0.848 
C1       C      0.8771       0.9219       0.8281       0.848 
C2       C      0.9074       0.4648       0.2852      -0.274 
C2       C      0.4074       0.9648       0.2852      -0.274 
C2       C      0.4074       0.4648       0.785201    -0.274 
C2       C      0.9074       0.9648       0.785201    -0.274 
C3       C      0.9133       0.4921       0.2579       0.11  
C3       C      0.4133       0.992099     0.2579       0.11  
C3       C      0.4133       0.4921       0.7579       0.11  
C3       C      0.9133       0.992099     0.7579       0.11  
C1       C      0.905199     0.4508       0.2992       0.848 
C1       C      0.4052       0.950799     0.2992       0.848 
C1       C      0.4052       0.4508       0.7992       0.848 
C1       C      0.905199     0.950799     0.7992       0.848 
H1       H      0.413156     0.00247031   0.247529     0.1   
H1       H      0.913155     0.50247      0.247529     0.1   
H1       H      0.913155     0.00247031   0.74753      0.1   
H1       H      0.413156     0.50247      0.74753      0.1   
C2       C      0.4956       0.2544       0.0174006   -0.274 
C2       C      0.9956       0.754401     0.0174006   -0.274 
C2       C      0.9956       0.2544       0.5174      -0.274 
C2       C      0.4956       0.754401     0.5174      -0.274 
C1       C      0.4823       0.267701     0.0224002    0.848 
C1       C      0.9823       0.7677       0.0224002    0.848 
C1       C      0.9823       0.267701     0.522399     0.848 
C1       C      0.4823       0.7677       0.522399     0.848 
C2       C      0.9116       0.3384       0.3639      -0.274 
C2       C      0.4116       0.838399     0.3639      -0.274 
C2       C      0.4116       0.3384       0.8639      -0.274 
C2       C      0.9116       0.838399     0.8639      -0.274 
C1       C      0.9219       0.328101     0.377099     0.848 
C1       C      0.4219       0.8281       0.377099     0.848 
C1       C      0.4219       0.328101     0.8771       0.848 
C1       C      0.9219       0.8281       0.8771       0.848 
C2       C      0.9648       0.2852       0.4074      -0.274 
C2       C      0.4648       0.785201     0.4074      -0.274 
C2       C      0.4648       0.2852       0.9074      -0.274 
C2       C      0.9648       0.785201     0.9074      -0.274 
C3       C      0.992099     0.2579       0.4133       0.11  
C3       C      0.4921       0.7579       0.4133       0.11  
C3       C      0.4921       0.2579       0.9133       0.11  
C3       C      0.992099     0.7579       0.9133       0.11  
C1       C      0.950799     0.2992       0.4052       0.848 
C1       C      0.4508       0.7992       0.4052       0.848 
C1       C      0.4508       0.2992       0.905199     0.848 
C1       C      0.950799     0.7992       0.905199     0.848 
H1       H      0.00247031   0.247529     0.413156     0.1   
H1       H      0.50247      0.74753      0.413156     0.1   
H1       H      0.50247      0.247529     0.913155     0.1   
H1       H      0.00247031   0.74753      0.913155     0.1   
C2       C      0.754401     0.2544       0.2326      -0.274 
C2       C      0.2544       0.754401     0.2326      -0.274 
C2       C      0.2544       0.2544       0.7326      -0.274 
C2       C      0.754401     0.754401     0.7326      -0.274 
C1       C      0.7677       0.267701     0.227599     0.848 
C1       C      0.267701     0.7677       0.227599     0.848 
C1       C      0.267701     0.267701     0.7276       0.848 
C1       C      0.7677       0.7677       0.7276       0.848 
C2       C      0.838399     0.3384       0.3861      -0.274 
C2       C      0.3384       0.838399     0.3861      -0.274 
C2       C      0.3384       0.3384       0.886099    -0.274 
C2       C      0.838399     0.838399     0.886099    -0.274 
C1       C      0.8281       0.328101     0.3729       0.848 
C1       C      0.328101     0.8281       0.3729       0.848 
C1       C      0.328101     0.328101     0.8729       0.848 
C1       C      0.8281       0.8281       0.8729       0.848 
C2       C      0.785201     0.2852       0.3426      -0.274 
C2       C      0.2852       0.785201     0.3426      -0.274 
C2       C      0.2852       0.2852       0.842599    -0.274 
C2       C      0.785201     0.785201     0.842599    -0.274 
C3       C      0.7579       0.2579       0.336699     0.11  
C3       C      0.2579       0.7579       0.336699     0.11  
C3       C      0.2579       0.2579       0.8367       0.11  
C3       C      0.7579       0.7579       0.8367       0.11  
C1       C      0.7992       0.2992       0.3448       0.848 
C1       C      0.2992       0.7992       0.3448       0.848 
C1       C      0.2992       0.2992       0.8448       0.848 
C1       C      0.7992       0.7992       0.8448       0.848 
H1       H      0.74753      0.247529     0.336845     0.1   
H1       H      0.247529     0.74753      0.336845     0.1   
H1       H      0.247529     0.247529     0.836845     0.1   
H1       H      0.74753      0.74753      0.836845     0.1   
C2       C      0.2544       0.4956       0.0174006   -0.274 
C2       C      0.754401     0.9956       0.0174006   -0.274 
C2       C      0.754401     0.4956       0.5174      -0.274 
C2       C      0.2544       0.9956       0.5174      -0.274 
C1       C      0.267701     0.4823       0.0224002    0.848 
C1       C      0.7677       0.9823       0.0224002    0.848 
C1       C      0.7677       0.4823       0.522399     0.848 
C1       C      0.267701     0.9823       0.522399     0.848 
C2       C      0.838399     0.4116       0.3639      -0.274 
C2       C      0.3384       0.9116       0.3639      -0.274 
C2       C      0.3384       0.4116       0.8639      -0.274 
C2       C      0.838399     0.9116       0.8639      -0.274 
C1       C      0.8281       0.4219       0.377099     0.848 
C1       C      0.328101     0.9219       0.377099     0.848 
C1       C      0.328101     0.4219       0.8771       0.848 
C1       C      0.8281       0.9219       0.8771       0.848 
C2       C      0.785201     0.4648       0.4074      -0.274 
C2       C      0.2852       0.9648       0.4074      -0.274 
C2       C      0.2852       0.4648       0.9074      -0.274 
C2       C      0.785201     0.9648       0.9074      -0.274 
C3       C      0.7579       0.4921       0.4133       0.11  
C3       C      0.2579       0.992099     0.4133       0.11  
C3       C      0.2579       0.4921       0.9133       0.11  
C3       C      0.7579       0.992099     0.9133       0.11  
C1       C      0.7992       0.4508       0.4052       0.848 
C1       C      0.2992       0.950799     0.4052       0.848 
C1       C      0.2992       0.4508       0.905199     0.848 
C1       C      0.7992       0.950799     0.905199     0.848 
H1       H      0.247529     0.00247031   0.413156     0.1   
H1       H      0.74753      0.50247      0.413156     0.1   
H1       H      0.74753      0.00247031   0.913155     0.1   
H1       H      0.247529     0.50247      0.913155     0.1   
C2       C      0.9956       0.4956       0.2326      -0.274 
C2       C      0.4956       0.9956       0.2326      -0.274 
C2       C      0.4956       0.4956       0.7326      -0.274 
C2       C      0.9956       0.9956       0.7326      -0.274 
C1       C      0.9823       0.4823       0.227599     0.848 
C1       C      0.4823       0.9823       0.227599     0.848 
C1       C      0.4823       0.4823       0.7276       0.848 
C1       C      0.9823       0.9823       0.7276       0.848 
C2       C      0.9116       0.4116       0.3861      -0.274 
C2       C      0.4116       0.9116       0.3861      -0.274 
C2       C      0.4116       0.4116       0.886099    -0.274 
C2       C      0.9116       0.9116       0.886099    -0.274 
C1       C      0.9219       0.4219       0.3729       0.848 
C1       C      0.4219       0.9219       0.3729       0.848 
C1       C      0.4219       0.4219       0.8729       0.848 
C1       C      0.9219       0.9219       0.8729       0.848 
C2       C      0.9648       0.4648       0.3426      -0.274 
C2       C      0.4648       0.9648       0.3426      -0.274 
C2       C      0.4648       0.4648       0.842599    -0.274 
C2       C      0.9648       0.9648       0.842599    -0.274 
C3       C      0.992099     0.4921       0.336699     0.11  
C3       C      0.4921       0.992099     0.336699     0.11  
C3       C      0.4921       0.4921       0.8367       0.11  
C3       C      0.992099     0.992099     0.8367       0.11  
C1       C      0.950799     0.4508       0.3448       0.848 
C1       C      0.4508       0.950799     0.3448       0.848 
C1       C      0.4508       0.4508       0.8448       0.848 
C1       C      0.950799     0.950799     0.8448       0.848 
H1       H      0.50247      0.00247031   0.336845     0.1   
H1       H      0.00247031   0.50247      0.336845     0.1   
H1       H      0.00247031   0.00247031   0.836845     0.1   
H1       H      0.50247      0.50247      0.836845     0.1   
C2       C      0.754401     0.2326       0.2544      -0.274 
C2       C      0.2544       0.7326       0.2544      -0.274 
C2       C      0.2544       0.2326       0.754401    -0.274 
C2       C      0.754401     0.7326       0.754401    -0.274 
C1       C      0.7677       0.227599     0.267701     0.848 
C1       C      0.267701     0.7276       0.267701     0.848 
C1       C      0.267701     0.227599     0.7677       0.848 
C1       C      0.7677       0.7276       0.7677       0.848 
C2       C      0.838399     0.3861       0.3384      -0.274 
C2       C      0.3384       0.886099     0.3384      -0.274 
C2       C      0.3384       0.3861       0.838399    -0.274 
C2       C      0.838399     0.886099     0.838399    -0.274 
C1       C      0.8281       0.3729       0.328101     0.848 
C1       C      0.328101     0.8729       0.328101     0.848 
C1       C      0.328101     0.3729       0.8281       0.848 
C1       C      0.8281       0.8729       0.8281       0.848 
C2       C      0.785201     0.3426       0.2852      -0.274 
C2       C      0.2852       0.842599     0.2852      -0.274 
C2       C      0.2852       0.3426       0.785201    -0.274 
C2       C      0.785201     0.842599     0.785201    -0.274 
C3       C      0.7579       0.336699     0.2579       0.11  
C3       C      0.2579       0.8367       0.2579       0.11  
C3       C      0.2579       0.336699     0.7579       0.11  
C3       C      0.7579       0.8367       0.7579       0.11  
C1       C      0.7992       0.3448       0.2992       0.848 
C1       C      0.2992       0.8448       0.2992       0.848 
C1       C      0.2992       0.3448       0.7992       0.848 
C1       C      0.7992       0.8448       0.7992       0.848 
H1       H      0.74753      0.336845     0.247529     0.1   
H1       H      0.247529     0.836845     0.247529     0.1   
H1       H      0.247529     0.336845     0.74753      0.1   
H1       H      0.74753      0.836845     0.74753      0.1   
C2       C      0.2544       0.0174006    0.4956      -0.274 
C2       C      0.754401     0.5174       0.4956      -0.274 
C2       C      0.754401     0.0174006    0.9956      -0.274 
C2       C      0.2544       0.5174       0.9956      -0.274 
C1       C      0.267701     0.0224002    0.4823       0.848 
C1       C      0.7677       0.522399     0.4823       0.848 
C1       C      0.7677       0.0224002    0.9823       0.848 
C1       C      0.267701     0.522399     0.9823       0.848 
C2       C      0.838399     0.3639       0.4116      -0.274 
C2       C      0.3384       0.8639       0.4116      -0.274 
C2       C      0.3384       0.3639       0.9116      -0.274 
C2       C      0.838399     0.8639       0.9116      -0.274 
C1       C      0.8281       0.377099     0.4219       0.848 
C1       C      0.328101     0.8771       0.4219       0.848 
C1       C      0.328101     0.377099     0.9219       0.848 
C1       C      0.8281       0.8771       0.9219       0.848 
C2       C      0.785201     0.4074       0.4648      -0.274 
C2       C      0.2852       0.9074       0.4648      -0.274 
C2       C      0.2852       0.4074       0.9648      -0.274 
C2       C      0.785201     0.9074       0.9648      -0.274 
C3       C      0.7579       0.4133       0.4921       0.11  
C3       C      0.2579       0.9133       0.4921       0.11  
C3       C      0.2579       0.4133       0.992099     0.11  
C3       C      0.7579       0.9133       0.992099     0.11  
C1       C      0.7992       0.4052       0.4508       0.848 
C1       C      0.2992       0.905199     0.4508       0.848 
C1       C      0.2992       0.4052       0.950799     0.848 
C1       C      0.7992       0.905199     0.950799     0.848 
H1       H      0.247529     0.413156     0.00247031   0.1   
H1       H      0.74753      0.913155     0.00247031   0.1   
H1       H      0.74753      0.413156     0.50247      0.1   
H1       H      0.247529     0.913155     0.50247      0.1   
C2       C      0.9956       0.2326       0.4956      -0.274 
C2       C      0.4956       0.7326       0.4956      -0.274 
C2       C      0.4956       0.2326       0.9956      -0.274 
C2       C      0.9956       0.7326       0.9956      -0.274 
C1       C      0.9823       0.227599     0.4823       0.848 
C1       C      0.4823       0.7276       0.4823       0.848 
C1       C      0.4823       0.227599     0.9823       0.848 
C1       C      0.9823       0.7276       0.9823       0.848 
C2       C      0.9116       0.3861       0.4116      -0.274 
C2       C      0.4116       0.886099     0.4116      -0.274 
C2       C      0.4116       0.3861       0.9116      -0.274 
C2       C      0.9116       0.886099     0.9116      -0.274 
C1       C      0.9219       0.3729       0.4219       0.848 
C1       C      0.4219       0.8729       0.4219       0.848 
C1       C      0.4219       0.3729       0.9219       0.848 
C1       C      0.9219       0.8729       0.9219       0.848 
C2       C      0.9648       0.3426       0.4648      -0.274 
C2       C      0.4648       0.842599     0.4648      -0.274 
C2       C      0.4648       0.3426       0.9648      -0.274 
C2       C      0.9648       0.842599     0.9648      -0.274 
C3       C      0.992099     0.336699     0.4921       0.11  
C3       C      0.4921       0.8367       0.4921       0.11  
C3       C      0.4921       0.336699     0.992099     0.11  
C3       C      0.992099     0.8367       0.992099     0.11  
C1       C      0.950799     0.3448       0.4508       0.848 
C1       C      0.4508       0.8448       0.4508       0.848 
C1       C      0.4508       0.3448       0.950799     0.848 
C1       C      0.950799     0.8448       0.950799     0.848 
H1       H      0.50247      0.336845     0.00247031   0.1   
H1       H      0.00247031   0.836845     0.00247031   0.1   
H1       H      0.00247031   0.336845     0.50247      0.1   
H1       H      0.50247      0.836845     0.50247      0.1   
C2       C      0.4956       0.0174006    0.2544      -0.274 
C2       C      0.9956       0.5174       0.2544      -0.274 
C2       C      0.9956       0.0174006    0.754401    -0.274 
C2       C      0.4956       0.5174       0.754401    -0.274 
C1       C      0.4823       0.0224002    0.267701     0.848 
C1       C      0.9823       0.522399     0.267701     0.848 
C1       C      0.9823       0.0224002    0.7677       0.848 
C1       C      0.4823       0.522399     0.7677       0.848 
C2       C      0.9116       0.3639       0.3384      -0.274 
C2       C      0.4116       0.8639       0.3384      -0.274 
C2       C      0.4116       0.3639       0.838399    -0.274 
C2       C      0.9116       0.8639       0.838399    -0.274 
C1       C      0.9219       0.377099     0.328101     0.848 
C1       C      0.4219       0.8771       0.328101     0.848 
C1       C      0.4219       0.377099     0.8281       0.848 
C1       C      0.9219       0.8771       0.8281       0.848 
C2       C      0.9648       0.4074       0.2852      -0.274 
C2       C      0.4648       0.9074       0.2852      -0.274 
C2       C      0.4648       0.4074       0.785201    -0.274 
C2       C      0.9648       0.9074       0.785201    -0.274 
C3       C      0.992099     0.4133       0.2579       0.11  
C3       C      0.4921       0.9133       0.2579       0.11  
C3       C      0.4921       0.4133       0.7579       0.11  
C3       C      0.992099     0.9133       0.7579       0.11  
C1       C      0.950799     0.4052       0.2992       0.848 
C1       C      0.4508       0.905199     0.2992       0.848 
C1       C      0.4508       0.4052       0.7992       0.848 
C1       C      0.950799     0.905199     0.7992       0.848 
H1       H      0.00247031   0.413156     0.247529     0.1   
H1       H      0.50247      0.913155     0.247529     0.1   
H1       H      0.50247      0.413156     0.74753      0.1   
H1       H      0.00247031   0.913155     0.74753      0.1   
C3       C      0.2385       0.4877       0.4877       0.11  
C3       C      0.738501     0.987701     0.4877       0.11  
C3       C      0.738501     0.4877       0.987701     0.11  
C3       C      0.2385       0.987701     0.987701     0.11  
C3       C      0.5115       0.2623       0.4877       0.11  
C3       C      0.0114998    0.7623       0.4877       0.11  
C3       C      0.0114998    0.2623       0.987701     0.11  
C3       C      0.5115       0.7623       0.987701     0.11  
C3       C      0.5115       0.4877       0.2623       0.11  
C3       C      0.0114998    0.987701     0.2623       0.11  
C3       C      0.0114998    0.4877       0.7623       0.11  
C3       C      0.5115       0.987701     0.7623       0.11  
C3       C      0.2385       0.2623       0.2623       0.11  
C3       C      0.738501     0.7623       0.2623       0.11  
C3       C      0.738501     0.2623       0.7623       0.11  
C3       C      0.2385       0.7623       0.7623       0.11  
C3       C      0.4877       0.2385       0.4877       0.11  
C3       C      0.987701     0.738501     0.4877       0.11  
C3       C      0.987701     0.2385       0.987701     0.11  
C3       C      0.4877       0.738501     0.987701     0.11  
C3       C      0.987701     0.0114998    0.2623       0.11  
C3       C      0.4877       0.5115       0.2623       0.11  
C3       C      0.4877       0.0114998    0.7623       0.11  
C3       C      0.987701     0.5115       0.7623       0.11  
C3       C      0.7623       0.0114998    0.4877       0.11  
C3       C      0.2623       0.5115       0.4877       0.11  
C3       C      0.2623       0.0114998    0.987701     0.11  
C3       C      0.7623       0.5115       0.987701     0.11  
C3       C      0.2623       0.2385       0.2623       0.11  
C3       C      0.7623       0.738501     0.2623       0.11  
C3       C      0.7623       0.2385       0.7623       0.11  
C3       C      0.2623       0.738501     0.7623       0.11  
C3       C      0.4877       0.4877       0.2385       0.11  
C3       C      0.987701     0.987701     0.2385       0.11  
C3       C      0.987701     0.4877       0.738501     0.11  
C3       C      0.4877       0.987701     0.738501     0.11  
C3       C      0.7623       0.4877       0.0114998    0.11  
C3       C      0.2623       0.987701     0.0114998    0.11  
C3       C      0.2623       0.4877       0.5115       0.11  
C3       C      0.7623       0.987701     0.5115       0.11  
C3       C      0.987701     0.2623       0.0114998    0.11  
C3       C      0.4877       0.7623       0.0114998    0.11  
C3       C      0.4877       0.2623       0.5115       0.11  
C3       C      0.987701     0.7623       0.5115       0.11  
C3       C      0.2623       0.2623       0.2385       0.11  
C3       C      0.7623       0.7623       0.2385       0.11  
C3       C      0.7623       0.2623       0.738501     0.11  
C3       C      0.2623       0.7623       0.738501     0.11  
C3       C      0.2377       0.4885       0.0122994    0.11  
C3       C      0.7377       0.9885       0.0122994    0.11  
C3       C      0.7377       0.4885       0.5123       0.11  
C3       C      0.2377       0.9885       0.5123       0.11  
C3       C      0.5123       0.261499     0.0122994    0.11  
C3       C      0.0122994    0.7615       0.0122994    0.11  
C3       C      0.0122994    0.261499     0.5123       0.11  
C3       C      0.5123       0.7615       0.5123       0.11  
C3       C      0.7377       0.261499     0.2377       0.11  
C3       C      0.2377       0.7615       0.2377       0.11  
C3       C      0.2377       0.261499     0.7377       0.11  
C3       C      0.7377       0.7615       0.7377       0.11  
C3       C      0.0122994    0.4885       0.2377       0.11  
C3       C      0.5123       0.9885       0.2377       0.11  
C3       C      0.5123       0.4885       0.7377       0.11  
C3       C      0.0122994    0.9885       0.7377       0.11  
C3       C      0.4885       0.2377       0.0122994    0.11  
C3       C      0.9885       0.7377       0.0122994    0.11  
C3       C      0.9885       0.2377       0.5123       0.11  
C3       C      0.4885       0.7377       0.5123       0.11  
C3       C      0.7615       0.2377       0.2377       0.11  
C3       C      0.261499     0.7377       0.2377       0.11  
C3       C      0.261499     0.2377       0.7377       0.11  
C3       C      0.7615       0.7377       0.7377       0.11  
C3       C      0.7615       0.0122994    0.0122994    0.11  
C3       C      0.261499     0.5123       0.0122994    0.11  
C3       C      0.261499     0.0122994    0.5123       0.11  
C3       C      0.7615       0.5123       0.5123       0.11  
C3       C      0.4885       0.0122994    0.2377       0.11  
C3       C      0.9885       0.5123       0.2377       0.11  
C3       C      0.9885       0.0122994    0.7377       0.11  
C3       C      0.4885       0.5123       0.7377       0.11  
C3       C      0.7377       0.2377       0.261499     0.11  
C3       C      0.2377       0.7377       0.261499     0.11  
C3       C      0.2377       0.2377       0.7615       0.11  
C3       C      0.7377       0.7377       0.7615       0.11  
C3       C      0.2377       0.0122994    0.4885       0.11  
C3       C      0.7377       0.5123       0.4885       0.11  
C3       C      0.7377       0.0122994    0.9885       0.11  
C3       C      0.2377       0.5123       0.9885       0.11  
C3       C      0.0122994    0.2377       0.4885       0.11  
C3       C      0.5123       0.7377       0.4885       0.11  
C3       C      0.5123       0.2377       0.9885       0.11  
C3       C      0.0122994    0.7377       0.9885       0.11  
C3       C      0.5123       0.0122994    0.261499     0.11  
C3       C      0.0122994    0.5123       0.261499     0.11  
C3       C      0.0122994    0.0122994    0.7615       0.11  
C3       C      0.5123       0.5123       0.7615       0.11  
H1       H      0.77115      0.0201219    0.0201219    0.1   
H1       H      0.27115      0.520121     0.0201219    0.1   
H1       H      0.27115      0.0201219    0.520121     0.1   
H1       H      0.77115      0.520121     0.520121     0.1   
H1       H      0.598199     0.465068     0.465068     0.1   
H1       H      0.0981981    0.965069     0.465068     0.1   
H1       H      0.0981981    0.465068     0.965069     0.1   
H1       H      0.598199     0.965069     0.965069     0.1   
H1       H      0.47885      0.229878     0.0201219    0.1   
H1       H      0.978849     0.729878     0.0201219    0.1   
H1       H      0.978849     0.229878     0.520121     0.1   
H1       H      0.47885      0.729878     0.520121     0.1   
H1       H      0.151802     0.284932     0.465068     0.1   
H1       H      0.651801     0.784932     0.465068     0.1   
H1       H      0.651801     0.284932     0.965069     0.1   
H1       H      0.151802     0.784932     0.965069     0.1   
H1       H      0.47885      0.0201219    0.229878     0.1   
H1       H      0.978849     0.520121     0.229878     0.1   
H1       H      0.978849     0.0201219    0.729878     0.1   
H1       H      0.47885      0.520121     0.729878     0.1   
H1       H      0.151802     0.465068     0.284932     0.1   
H1       H      0.651801     0.965069     0.284932     0.1   
H1       H      0.651801     0.465068     0.784932     0.1   
H1       H      0.151802     0.965069     0.784932     0.1   
H1       H      0.77115      0.229878     0.229878     0.1   
H1       H      0.27115      0.729878     0.229878     0.1   
H1       H      0.27115      0.229878     0.729878     0.1   
H1       H      0.77115      0.729878     0.729878     0.1   
H1       H      0.598199     0.284932     0.284932     0.1   
H1       H      0.0981981    0.784932     0.284932     0.1   
H1       H      0.0981981    0.284932     0.784932     0.1   
H1       H      0.598199     0.784932     0.784932     0.1   
H1       H      0.520121     0.27115      0.0201219    0.1   
H1       H      0.0201219    0.77115      0.0201219    0.1   
H1       H      0.0201219    0.27115      0.520121     0.1   
H1       H      0.520121     0.77115      0.520121     0.1   
H1       H      0.965069     0.0981981    0.465068     0.1   
H1       H      0.465068     0.598199     0.465068     0.1   
H1       H      0.465068     0.0981981    0.965069     0.1   
H1       H      0.965069     0.598199     0.965069     0.1   
H1       H      0.0201219    0.47885      0.229878     0.1   
H1       H      0.520121     0.978849     0.229878     0.1   
H1       H      0.520121     0.47885      0.729878     0.1   
H1       H      0.0201219    0.978849     0.729878     0.1   
H1       H      0.465068     0.151802     0.284932     0.1   
H1       H      0.965069     0.651801     0.284932     0.1   
H1       H      0.965069     0.151802     0.784932     0.1   
H1       H      0.465068     0.651801     0.784932     0.1   
H1       H      0.229878     0.47885      0.0201219    0.1   
H1       H      0.729878     0.978849     0.0201219    0.1   
H1       H      0.729878     0.47885      0.520121     0.1   
H1       H      0.229878     0.978849     0.520121     0.1   
H1       H      0.284932     0.151802     0.465068     0.1   
H1       H      0.784932     0.651801     0.465068     0.1   
H1       H      0.784932     0.151802     0.965069     0.1   
H1       H      0.284932     0.651801     0.965069     0.1   
H1       H      0.729878     0.27115      0.229878     0.1   
H1       H      0.229878     0.77115      0.229878     0.1   
H1       H      0.229878     0.27115      0.729878     0.1   
H1       H      0.729878     0.77115      0.729878     0.1   
H1       H      0.784932     0.0981981    0.284932     0.1   
H1       H      0.284932     0.598199     0.284932     0.1   
H1       H      0.284932     0.0981981    0.784932     0.1   
H1       H      0.784932     0.598199     0.784932     0.1   
H1       H      0.520121     0.0201219    0.27115      0.1   
H1       H      0.0201219    0.520121     0.27115      0.1   
H1       H      0.0201219    0.0201219    0.77115      0.1   
H1       H      0.520121     0.520121     0.77115      0.1   
H1       H      0.965069     0.465068     0.0981981    0.1   
H1       H      0.465068     0.965069     0.0981981    0.1   
H1       H      0.465068     0.465068     0.598199     0.1   
H1       H      0.965069     0.965069     0.598199     0.1   
H1       H      0.229878     0.0201219    0.47885      0.1   
H1       H      0.729878     0.520121     0.47885      0.1   
H1       H      0.729878     0.0201219    0.978849     0.1   
H1       H      0.229878     0.520121     0.978849     0.1   
H1       H      0.284932     0.465068     0.151802     0.1   
H1       H      0.784932     0.965069     0.151802     0.1   
H1       H      0.784932     0.465068     0.651801     0.1   
H1       H      0.284932     0.965069     0.651801     0.1   
H1       H      0.0201219    0.229878     0.47885      0.1   
H1       H      0.520121     0.729878     0.47885      0.1   
H1       H      0.520121     0.229878     0.978849     0.1   
H1       H      0.0201219    0.729878     0.978849     0.1   
H1       H      0.465068     0.284932     0.151802     0.1   
H1       H      0.965069     0.784932     0.151802     0.1   
H1       H      0.965069     0.284932     0.651801     0.1   
H1       H      0.465068     0.784932     0.651801     0.1   
H1       H      0.729878     0.229878     0.27115      0.1   
H1       H      0.229878     0.729878     0.27115      0.1   
H1       H      0.229878     0.229878     0.77115      0.1   
H1       H      0.729878     0.729878     0.77115      0.1   
H1       H      0.784932     0.284932     0.0981981    0.1   
H1       H      0.284932     0.784932     0.0981981    0.1   
H1       H      0.284932     0.284932     0.598199     0.1   
H1       H      0.784932     0.784932     0.598199     0.1   
H1       H      0.770122     0.0211506    0.479879     0.1   
H1       H      0.270122     0.52115      0.479879     0.1   
H1       H      0.270122     0.0211506    0.979878     0.1   
H1       H      0.770122     0.52115      0.979878     0.1   
H1       H      0.715068     0.348199     0.0349314    0.1   
H1       H      0.215068     0.848198     0.0349314    0.1   
H1       H      0.215068     0.348199     0.534932     0.1   
H1       H      0.715068     0.848198     0.534932     0.1   
H1       H      0.479879     0.22885      0.479879     0.1   
H1       H      0.979878     0.72885      0.479879     0.1   
H1       H      0.979878     0.22885      0.979878     0.1   
H1       H      0.479879     0.72885      0.979878     0.1   
H1       H      0.0349314    0.401801     0.0349314    0.1   
H1       H      0.534932     0.901802     0.0349314    0.1   
H1       H      0.534932     0.401801     0.534932     0.1   
H1       H      0.0349314    0.901802     0.534932     0.1   
H1       H      0.270122     0.22885      0.270122     0.1   
H1       H      0.770122     0.72885      0.270122     0.1   
H1       H      0.770122     0.22885      0.770122     0.1   
H1       H      0.270122     0.72885      0.770122     0.1   
H1       H      0.215068     0.401801     0.215068     0.1   
H1       H      0.715068     0.901802     0.215068     0.1   
H1       H      0.715068     0.401801     0.715068     0.1   
H1       H      0.215068     0.901802     0.715068     0.1   
H1       H      0.979878     0.0211506    0.270122     0.1   
H1       H      0.479879     0.52115      0.270122     0.1   
H1       H      0.479879     0.0211506    0.770122     0.1   
H1       H      0.979878     0.52115      0.770122     0.1   
H1       H      0.534932     0.348199     0.215068     0.1   
H1       H      0.0349314    0.848198     0.215068     0.1   
H1       H      0.0349314    0.348199     0.715068     0.1   
H1       H      0.534932     0.848198     0.715068     0.1   
H1       H      0.52115      0.270122     0.479879     0.1   
H1       H      0.0211506    0.770122     0.479879     0.1   
H1       H      0.0211506    0.270122     0.979878     0.1   
H1       H      0.52115      0.770122     0.979878     0.1   
H1       H      0.848198     0.215068     0.0349314    0.1   
H1       H      0.348199     0.715068     0.0349314    0.1   
H1       H      0.348199     0.215068     0.534932     0.1   
H1       H      0.848198     0.715068     0.534932     0.1   
H1       H      0.22885      0.270122     0.270122     0.1   
H1       H      0.72885      0.770122     0.270122     0.1   
H1       H      0.72885      0.270122     0.770122     0.1   
H1       H      0.22885      0.770122     0.770122     0.1   
H1       H      0.401801     0.215068     0.215068     0.1   
H1       H      0.901802     0.715068     0.215068     0.1   
H1       H      0.901802     0.215068     0.715068     0.1   
H1       H      0.401801     0.715068     0.715068     0.1   
H1       H      0.22885      0.479879     0.479879     0.1   
H1       H      0.72885      0.979878     0.479879     0.1   
H1       H      0.72885      0.479879     0.979878     0.1   
H1       H      0.22885      0.979878     0.979878     0.1   
H1       H      0.401801     0.0349314    0.0349314    0.1   
H1       H      0.901802     0.534932     0.0349314    0.1   
H1       H      0.901802     0.0349314    0.534932     0.1   
H1       H      0.401801     0.534932     0.534932     0.1   
H1       H      0.52115      0.479879     0.270122     0.1   
H1       H      0.0211506    0.979878     0.270122     0.1   
H1       H      0.0211506    0.479879     0.770122     0.1   
H1       H      0.52115      0.979878     0.770122     0.1   
H1       H      0.848198     0.0349314    0.215068     0.1   
H1       H      0.348199     0.534932     0.215068     0.1   
H1       H      0.348199     0.0349314    0.715068     0.1   
H1       H      0.848198     0.534932     0.715068     0.1   
H1       H      0.270122     0.270122     0.22885      0.1   
H1       H      0.770122     0.770122     0.22885      0.1   
H1       H      0.770122     0.270122     0.72885      0.1   
H1       H      0.270122     0.770122     0.72885      0.1   
H1       H      0.215068     0.215068     0.401801     0.1   
H1       H      0.715068     0.715068     0.401801     0.1   
H1       H      0.715068     0.215068     0.901802     0.1   
H1       H      0.215068     0.715068     0.901802     0.1   
H1       H      0.770122     0.479879     0.0211506    0.1   
H1       H      0.270122     0.979878     0.0211506    0.1   
H1       H      0.270122     0.479879     0.52115      0.1   
H1       H      0.770122     0.979878     0.52115      0.1   
H1       H      0.715068     0.0349314    0.348199     0.1   
H1       H      0.215068     0.534932     0.348199     0.1   
H1       H      0.215068     0.0349314    0.848198     0.1   
H1       H      0.715068     0.534932     0.848198     0.1   
H1       H      0.979878     0.270122     0.0211506    0.1   
H1       H      0.479879     0.770122     0.0211506    0.1   
H1       H      0.479879     0.270122     0.52115      0.1   
H1       H      0.979878     0.770122     0.52115      0.1   
H1       H      0.534932     0.215068     0.348199     0.1   
H1       H      0.0349314    0.715068     0.348199     0.1   
H1       H      0.0349314    0.215068     0.848198     0.1   
H1       H      0.534932     0.715068     0.848198     0.1   
H1       H      0.479879     0.479879     0.22885      0.1   
H1       H      0.979878     0.979878     0.22885      0.1   
H1       H      0.979878     0.479879     0.72885      0.1   
H1       H      0.479879     0.979878     0.72885      0.1   
H1       H      0.0349314    0.0349314    0.401801     0.1   
H1       H      0.534932     0.534932     0.401801     0.1   
H1       H      0.534932     0.0349314    0.901802     0.1   
H1       H      0.0349314    0.534932     0.901802     0.1   


