data_MIL-101

_audit_creation_method RASPA-1.0
_audit_creation_date 2011-3-7
_audit_author_name 'Ozgur Yazaydin'

_cell_length_a    88.869
_cell_length_b    88.869
_cell_length_c    88.869
_cell_angle_alpha 90
_cell_angle_beta  90
_cell_angle_gamma 90
_cell_volume      701861

_symmetry_cell_setting          triclinic
_symmetry_space_group_name_Hall 'P 1'
_symmetry_space_group_name_H-M  'P 1'
_symmetry_Int_Tables_number     1

_symmetry_equiv_pos_as_xyz 'x,y,z'

loop_
_atom_site_label
_atom_site_type_symbol
_atom_site_fract_x
_atom_site_fract_y
_atom_site_fract_z
_atom_site_charge
Cr1      Cr     0.0947304    0.42799      0.01291      1.619 
Cr1      Cr     0.59473      0.92799      0.01291      1.619 
Cr1      Cr     0.59473      0.42799      0.51291      1.619 
Cr1      Cr     0.0947304    0.92799      0.51291      1.619 
Cr1      Cr     0.8228       0.29246      0.20846      1.619 
Cr1      Cr     0.3228       0.79246      0.20846      1.619 
Cr1      Cr     0.3228       0.29246      0.70846      1.619 
Cr1      Cr     0.8228       0.79246      0.70846      1.619 
O2       O      0.85869      0.40982      0.43036     -0.574 
O2       O      0.35869      0.90982      0.43036     -0.574 
O2       O      0.35869      0.40982      0.93036     -0.574 
O2       O      0.85869      0.90982      0.93036     -0.574 
O2       O      0.8239       0.30587      0.22646     -0.574 
O2       O      0.3239       0.80587      0.22646     -0.574 
O2       O      0.3239       0.30587      0.72646     -0.574 
O2       O      0.8239       0.80587      0.72646     -0.574 
O3       O      0.838859     0.32263      0.3007      -0.438 
O3       O      0.338859     0.82263      0.3007      -0.438 
O3       O      0.338859     0.32263      0.8007      -0.438 
O3       O      0.838859     0.82263      0.8007      -0.438 
O2       O      0.72122      0.27416      0.32068     -0.574 
O2       O      0.22122      0.77416      0.32068     -0.574 
O2       O      0.22122      0.27416      0.82068     -0.574 
O2       O      0.72122      0.77416      0.82068     -0.574 
O2       O      0.71763      0.27195      0.29523     -0.574 
O2       O      0.21763      0.77195      0.29523     -0.574 
O2       O      0.21763      0.27195      0.79523     -0.574 
O2       O      0.71763      0.77195      0.79523     -0.574 
O3       O      0.57701      0.42561      0.48044     -0.438 
O3       O      0.07701      0.92561      0.48044     -0.438 
O3       O      0.07701      0.42561      0.98044     -0.438 
O3       O      0.57701      0.92561      0.98044     -0.438 
O2       O      0.58776      0.44003      0.49692     -0.574 
O2       O      0.0877595    0.94003      0.49692     -0.574 
O2       O      0.0877595    0.44003      0.99692     -0.574 
O2       O      0.58776      0.94003      0.99692     -0.574 
O2       O      0.587579     0.47279      0.39876     -0.574 
O2       O      0.0875795    0.97279      0.39876     -0.574 
O2       O      0.0875795    0.47279      0.89876     -0.574 
O2       O      0.587579     0.97279      0.89876     -0.574 
O2       O      0.607739     0.47747      0.38451     -0.574 
O2       O      0.107739     0.97747      0.38451     -0.574 
O2       O      0.107739     0.47747      0.88451     -0.574 
O2       O      0.607739     0.97747      0.88451     -0.574 
O2       O      0.60125      0.39811      0.37552     -0.574 
O2       O      0.10125      0.89811      0.37552     -0.574 
O2       O      0.10125      0.39811      0.87552     -0.574 
O2       O      0.60125      0.89811      0.87552     -0.574 
O3       O      0.62292      0.40693      0.36631     -0.438 
O3       O      0.12292      0.90693      0.36631     -0.438 
O3       O      0.12292      0.40693      0.86631     -0.438 
O3       O      0.62292      0.90693      0.86631     -0.438 
O3       O      0.69362      0.440889     0.42195     -0.438 
O3       O      0.19362      0.940889     0.42195     -0.438 
O3       O      0.19362      0.440889     0.92195     -0.438 
O3       O      0.69362      0.940889     0.92195     -0.438 
O3       O      0.64839      0.39622      0.379439    -0.438 
O3       O      0.14839      0.89622      0.379439    -0.438 
O3       O      0.14839      0.39622      0.879439    -0.438 
O3       O      0.64839      0.89622      0.879439    -0.438 
O2       O      0.68523      0.47624      0.45379     -0.574 
O2       O      0.18523      0.97624      0.45379     -0.574 
O2       O      0.18523      0.47624      0.95379     -0.574 
O2       O      0.68523      0.97624      0.95379     -0.574 
O3       O      0.68927      0.46912      0.430549    -0.438 
O3       O      0.18927      0.96912      0.430549    -0.438 
O3       O      0.18927      0.46912      0.930549    -0.438 
O3       O      0.68927      0.96912      0.930549    -0.438 
O3       O      0.11692      0.00664011   0.42722     -0.438 
O3       O      0.61692      0.50664      0.42722     -0.438 
O3       O      0.61692      0.00664011   0.92722     -0.438 
O3       O      0.11692      0.50664      0.92722     -0.438 
O2       O      0.62647      0.49662      0.40475     -0.574 
O2       O      0.12647      0.99662      0.40475     -0.574 
O2       O      0.12647      0.49662      0.90475     -0.574 
O2       O      0.62647      0.99662      0.90475     -0.574 
C3       C      0.8795       0.39071      0.43066     -0.058 
C3       C      0.3795       0.89071      0.43066     -0.058 
C3       C      0.3795       0.39071      0.93066     -0.058 
C3       C      0.8795       0.89071      0.93066     -0.058 
C3       C      0.83163      0.312        0.25507     -0.058 
C3       C      0.33163      0.812        0.25507     -0.058 
C3       C      0.33163      0.312        0.75507     -0.058 
C3       C      0.83163      0.812        0.75507     -0.058 
C3       C      0.835059     0.3153       0.27052     -0.058 
C3       C      0.335059     0.8153       0.27052     -0.058 
C3       C      0.335059     0.3153       0.77052     -0.058 
C3       C      0.835059     0.8153       0.77052     -0.058 
C3       C      0.73623      0.24748      0.29691     -0.058 
C3       C      0.23623      0.74748      0.29691     -0.058 
C3       C      0.23623      0.24748      0.79691     -0.058 
C3       C      0.73623      0.74748      0.79691     -0.058 
C1       C      0.726        0.27033      0.30736      0.496 
C1       C      0.226        0.770329     0.30736      0.496 
C1       C      0.226        0.27033      0.80736      0.496 
C1       C      0.726        0.770329     0.80736      0.496 
C2       C      0.73755      0.2594       0.30736     -0.07  
C2       C      0.23755      0.7594       0.30736     -0.07  
C2       C      0.23755      0.2594       0.80736     -0.07  
C2       C      0.73755      0.7594       0.80736     -0.07  
C3       C      0.74506      0.25632      0.32141     -0.058 
C3       C      0.24506      0.75632      0.32141     -0.058 
C3       C      0.24506      0.25632      0.82141     -0.058 
C3       C      0.74506      0.75632      0.82141     -0.058 
C3       C      0.571839     0.44769      0.45923     -0.058 
C3       C      0.0718394    0.94769      0.45923     -0.058 
C3       C      0.0718394    0.44769      0.95923     -0.058 
C3       C      0.571839     0.94769      0.95923     -0.058 
C1       C      0.58022      0.4387       0.48456      0.496 
C1       C      0.0802203    0.9387       0.48456      0.496 
C1       C      0.0802203    0.4387       0.984559     0.496 
C1       C      0.58022      0.9387       0.984559     0.496 
C2       C      0.58111      0.449819     0.47259     -0.07  
C2       C      0.0811104    0.949819     0.47259     -0.07  
C2       C      0.0811104    0.449819     0.97259     -0.07  
C2       C      0.58111      0.949819     0.97259     -0.07  
C3       C      0.5929       0.46067      0.47197     -0.058 
C3       C      0.0928997    0.96067      0.47197     -0.058 
C3       C      0.0928997    0.46067      0.97197     -0.058 
C3       C      0.5929       0.96067      0.97197     -0.058 
C3       C      0.59204      0.44184      0.39347     -0.058 
C3       C      0.09204      0.94184      0.39347     -0.058 
C3       C      0.09204      0.44184      0.89347     -0.058 
C3       C      0.59204      0.94184      0.89347     -0.058 
C1       C      0.59671      0.46908      0.38844      0.496 
C1       C      0.0967098    0.96908      0.38844      0.496 
C1       C      0.0967098    0.46908      0.88844      0.496 
C1       C      0.59671      0.96908      0.88844      0.496 
C2       C      0.59891      0.45404      0.38504     -0.07  
C2       C      0.0989096    0.95404      0.38504     -0.07  
C2       C      0.0989096    0.45404      0.88504     -0.07  
C2       C      0.59891      0.95404      0.88504     -0.07  
C3       C      0.59472      0.4269       0.38883     -0.058 
C3       C      0.0947203    0.9269       0.38883     -0.058 
C3       C      0.0947203    0.4269       0.88883     -0.058 
C3       C      0.59472      0.9269       0.88883     -0.058 
C1       C      0.610299     0.40929      0.37309      0.496 
C1       C      0.110299     0.90929      0.37309      0.496 
C1       C      0.110299     0.40929      0.87309      0.496 
C1       C      0.610299     0.90929      0.87309      0.496 
C2       C      0.60769      0.42411      0.3795      -0.07  
C2       C      0.10769      0.92411      0.3795      -0.07  
C2       C      0.10769      0.42411      0.8795      -0.07  
C2       C      0.60769      0.92411      0.8795      -0.07  
C3       C      0.612239     0.45164      0.37746     -0.058 
C3       C      0.11224      0.95164      0.37746     -0.058 
C3       C      0.11224      0.45164      0.87746     -0.058 
C3       C      0.612239     0.95164      0.87746     -0.058 
C3       C      0.61582      0.4365       0.37311     -0.058 
C3       C      0.11582      0.9365       0.37311     -0.058 
C3       C      0.11582      0.4365       0.87311     -0.058 
C3       C      0.61582      0.9365       0.87311     -0.058 
C3       C      0.67951      0.42322      0.40471     -0.058 
C3       C      0.17951      0.92322      0.40471     -0.058 
C3       C      0.17951      0.42322      0.90471     -0.058 
C3       C      0.67951      0.92322      0.90471     -0.058 
C3       C      0.66801      0.41515      0.39645     -0.058 
C3       C      0.16801      0.91515      0.39645     -0.058 
C3       C      0.16801      0.41515      0.89645     -0.058 
C3       C      0.66801      0.91515      0.89645     -0.058 
C3       C      0.65706      0.48645      0.44571     -0.058 
C3       C      0.15706      0.98645      0.44571     -0.058 
C3       C      0.15706      0.48645      0.94571     -0.058 
C3       C      0.65706      0.98645      0.94571     -0.058 
C1       C      0.681299     0.47536      0.44016      0.496 
C1       C      0.181299     0.97536      0.44016      0.496 
C1       C      0.181299     0.47536      0.94016      0.496 
C1       C      0.681299     0.97536      0.94016      0.496 
C2       C      0.66789      0.48193      0.43518     -0.07  
C2       C      0.16789      0.98193      0.43518     -0.07  
C2       C      0.16789      0.48193      0.93518     -0.07  
C2       C      0.66789      0.98193      0.93518     -0.07  
C3       C      0.64422      0.49383      0.44076     -0.058 
C3       C      0.14422      0.99383      0.44076     -0.058 
C3       C      0.14422      0.49383      0.94076     -0.058 
C3       C      0.64422      0.99383      0.94076     -0.058 
C1       C      0.62747      0.49905      0.41918      0.496 
C1       C      0.12747      0.99905      0.41918      0.496 
C1       C      0.12747      0.49905      0.91918      0.496 
C1       C      0.62747      0.99905      0.91918      0.496 
C2       C      0.64175      0.49511      0.42522     -0.07  
C2       C      0.14175      0.99511      0.42522     -0.07  
C2       C      0.14175      0.49511      0.92522     -0.07  
C2       C      0.64175      0.99511      0.92522     -0.07  
C3       C      0.66484      0.48154      0.41968     -0.058 
C3       C      0.16484      0.98154      0.41968     -0.058 
C3       C      0.16484      0.48154      0.91968     -0.058 
C3       C      0.66484      0.98154      0.91968     -0.058 
C3       C      0.65158      0.48829      0.41458     -0.058 
C3       C      0.15158      0.98829      0.41458     -0.058 
C3       C      0.15158      0.48829      0.91458     -0.058 
C3       C      0.65158      0.98829      0.91458     -0.058 
H1       H      0.8367       0.302505     0.249672     0.108 
H1       H      0.3367       0.802505     0.249672     0.108 
H1       H      0.3367       0.302505     0.749672     0.108 
H1       H      0.8367       0.802505     0.749672     0.108 
H1       H      0.843313     0.308789     0.276373     0.108 
H1       H      0.343313     0.808789     0.276373     0.108 
H1       H      0.343313     0.308789     0.776373     0.108 
H1       H      0.843313     0.808789     0.776373     0.108 
H1       H      0.682218     0.434559     0.401732     0.108 
H1       H      0.182218     0.934559     0.401732     0.108 
H1       H      0.182218     0.434559     0.901732     0.108 
H1       H      0.682218     0.934559     0.901732     0.108 
H1       H      0.664125     0.419364     0.385871     0.108 
H1       H      0.164125     0.919364     0.385871     0.108 
H1       H      0.164125     0.419364     0.885871     0.108 
H1       H      0.664125     0.919364     0.885871     0.108 
H1       H      0.881832     0.402375     0.428901     0.108 
H1       H      0.381832     0.902375     0.428901     0.108 
H1       H      0.381832     0.402375     0.928901     0.108 
H1       H      0.881832     0.902375     0.928901     0.108 
H1       H      0.726915     0.247154     0.289301     0.108 
H1       H      0.226915     0.747154     0.289301     0.108 
H1       H      0.226915     0.247154     0.789301     0.108 
H1       H      0.726915     0.747154     0.789301     0.108 
H1       H      0.672561     0.476187     0.412162     0.108 
H1       H      0.172561     0.976187     0.412162     0.108 
H1       H      0.172561     0.476187     0.912162     0.108 
H1       H      0.672561     0.976187     0.912162     0.108 
H1       H      0.64895      0.488276     0.402826     0.108 
H1       H      0.14895      0.988276     0.402826     0.108 
H1       H      0.14895      0.488276     0.902826     0.108 
H1       H      0.64895      0.988276     0.902826     0.108 
H1       H      0.65874      0.484203     0.457414     0.108 
H1       H      0.15874      0.984203     0.457414     0.108 
H1       H      0.15874      0.484203     0.957414     0.108 
H1       H      0.65874      0.984203     0.957414     0.108 
H1       H      0.636449     0.498402     0.448741     0.108 
H1       H      0.136449     0.998402     0.448741     0.108 
H1       H      0.136449     0.498402     0.948741     0.108 
H1       H      0.636449     0.998402     0.948741     0.108 
H1       H      0.56518      0.437739     0.458053     0.108 
H1       H      0.0651802    0.937739     0.458053     0.108 
H1       H      0.0651802    0.437739     0.958053     0.108 
H1       H      0.56518      0.937739     0.958053     0.108 
H1       H      0.601816     0.460334     0.480043     0.108 
H1       H      0.101816     0.960334     0.480043     0.108 
H1       H      0.101816     0.460334     0.980043     0.108 
H1       H      0.601816     0.960334     0.980043     0.108 
H1       H      0.619519     0.460902     0.375009     0.108 
H1       H      0.119519     0.960902     0.375009     0.108 
H1       H      0.119519     0.460902     0.875009     0.108 
H1       H      0.619519     0.960902     0.875009     0.108 
H1       H      0.624561     0.434466     0.365095     0.108 
H1       H      0.124561     0.934466     0.365095     0.108 
H1       H      0.124561     0.434466     0.865095     0.108 
H1       H      0.624561     0.934466     0.865095     0.108 
H1       H      0.585098     0.444271     0.403        0.108 
H1       H      0.0850983    0.944271     0.403        0.108 
H1       H      0.0850983    0.444271     0.903        0.108 
H1       H      0.585098     0.944271     0.903        0.108 
H1       H      0.587248     0.418109     0.392241     0.108 
H1       H      0.0872475    0.918109     0.392241     0.108 
H1       H      0.0872475    0.418109     0.892241     0.108 
H1       H      0.587248     0.918109     0.892241     0.108 
H1       H      0.742047     0.262456     0.331316     0.108 
H1       H      0.242047     0.762456     0.331316     0.108 
H1       H      0.242047     0.262456     0.831316     0.108 
H1       H      0.742047     0.762456     0.831316     0.108 
Cr1      Cr     0.65527      0.32201      0.01291      1.619 
Cr1      Cr     0.15527      0.82201      0.01291      1.619 
Cr1      Cr     0.15527      0.32201      0.51291      1.619 
Cr1      Cr     0.65527      0.82201      0.51291      1.619 
Cr1      Cr     0.9272       0.45754      0.20846      1.619 
Cr1      Cr     0.4272       0.95754      0.20846      1.619 
Cr1      Cr     0.4272       0.45754      0.70846      1.619 
Cr1      Cr     0.9272       0.95754      0.70846      1.619 
O3       O      0.89131      0.34018      0.43036     -0.438 
O3       O      0.39131      0.840179     0.43036     -0.438 
O3       O      0.39131      0.34018      0.93036     -0.438 
O3       O      0.89131      0.840179     0.93036     -0.438 
O2       O      0.9261       0.44413      0.22646     -0.574 
O2       O      0.4261       0.94413      0.22646     -0.574 
O2       O      0.4261       0.44413      0.72646     -0.574 
O2       O      0.9261       0.94413      0.72646     -0.574 
O3       O      0.91114      0.427369     0.3007      -0.438 
O3       O      0.41114      0.927369     0.3007      -0.438 
O3       O      0.41114      0.427369     0.8007      -0.438 
O3       O      0.91114      0.927369     0.8007      -0.438 
O3       O      0.0287794    0.47584      0.32068     -0.438 
O3       O      0.528779     0.97584      0.32068     -0.438 
O3       O      0.528779     0.47584      0.82068     -0.438 
O3       O      0.0287794    0.97584      0.82068     -0.438 
O2       O      0.0323701    0.47805      0.29523     -0.574 
O2       O      0.53237      0.97805      0.29523     -0.574 
O2       O      0.53237      0.47805      0.79523     -0.574 
O2       O      0.0323701    0.97805      0.79523     -0.574 
O3       O      0.172989     0.32439      0.48044     -0.438 
O3       O      0.672989     0.82439      0.48044     -0.438 
O3       O      0.672989     0.32439      0.98044     -0.438 
O3       O      0.172989     0.82439      0.98044     -0.438 
O2       O      0.16224      0.30997      0.49692     -0.574 
O2       O      0.66224      0.80997      0.49692     -0.574 
O2       O      0.66224      0.30997      0.99692     -0.574 
O2       O      0.16224      0.80997      0.99692     -0.574 
O2       O      0.16242      0.27721      0.39876     -0.574 
O2       O      0.66242      0.77721      0.39876     -0.574 
O2       O      0.66242      0.27721      0.89876     -0.574 
O2       O      0.16242      0.77721      0.89876     -0.574 
O2       O      0.14226      0.27253      0.38451     -0.574 
O2       O      0.64226      0.77253      0.38451     -0.574 
O2       O      0.64226      0.27253      0.88451     -0.574 
O2       O      0.14226      0.77253      0.88451     -0.574 
O2       O      0.14875      0.35189      0.37552     -0.574 
O2       O      0.64875      0.85189      0.37552     -0.574 
O2       O      0.64875      0.35189      0.87552     -0.574 
O2       O      0.14875      0.85189      0.87552     -0.574 
O3       O      0.12708      0.34307      0.36631     -0.438 
O3       O      0.62708      0.84307      0.36631     -0.438 
O3       O      0.62708      0.34307      0.86631     -0.438 
O3       O      0.12708      0.84307      0.86631     -0.438 
O2       O      0.0563796    0.30911      0.42195     -0.574 
O2       O      0.55638      0.80911      0.42195     -0.574 
O2       O      0.55638      0.30911      0.92195     -0.574 
O2       O      0.0563796    0.80911      0.92195     -0.574 
O3       O      0.10161      0.35378      0.379439    -0.438 
O3       O      0.60161      0.85378      0.379439    -0.438 
O3       O      0.60161      0.35378      0.879439    -0.438 
O3       O      0.10161      0.85378      0.879439    -0.438 
O2       O      0.0647695    0.27376      0.45379     -0.574 
O2       O      0.564769     0.77376      0.45379     -0.574 
O2       O      0.564769     0.27376      0.95379     -0.574 
O2       O      0.0647695    0.77376      0.95379     -0.574 
O2       O      0.0607298    0.28088      0.430549    -0.574 
O2       O      0.56073      0.78088      0.430549    -0.574 
O2       O      0.56073      0.28088      0.930549    -0.574 
O2       O      0.0607298    0.78088      0.930549    -0.574 
O3       O      0.13308      0.24336      0.42722     -0.438 
O3       O      0.63308      0.74336      0.42722     -0.438 
O3       O      0.63308      0.24336      0.92722     -0.438 
O3       O      0.13308      0.74336      0.92722     -0.438 
O2       O      0.12353      0.25338      0.40475     -0.574 
O2       O      0.62353      0.75338      0.40475     -0.574 
O2       O      0.62353      0.25338      0.90475     -0.574 
O2       O      0.12353      0.75338      0.90475     -0.574 
C3       C      0.8705       0.35929      0.43066     -0.058 
C3       C      0.3705       0.85929      0.43066     -0.058 
C3       C      0.3705       0.35929      0.93066     -0.058 
C3       C      0.8705       0.85929      0.93066     -0.058 
C3       C      0.91837      0.438        0.25507     -0.058 
C3       C      0.41837      0.938        0.25507     -0.058 
C3       C      0.41837      0.438        0.75507     -0.058 
C3       C      0.91837      0.938        0.75507     -0.058 
C3       C      0.91494      0.434701     0.27052     -0.058 
C3       C      0.41494      0.934699     0.27052     -0.058 
C3       C      0.41494      0.434701     0.77052     -0.058 
C3       C      0.91494      0.934699     0.77052     -0.058 
C3       C      0.51377      0.00252056   0.29691     -0.058 
C3       C      0.0137697    0.502519     0.29691     -0.058 
C3       C      0.0137697    0.00252056   0.79691     -0.058 
C3       C      0.51377      0.502519     0.79691     -0.058 
C1       C      0.0240005    0.47967      0.30736      0.496 
C1       C      0.523999     0.97967      0.30736      0.496 
C1       C      0.523999     0.47967      0.80736      0.496 
C1       C      0.0240005    0.97967      0.80736      0.496 
C2       C      0.0124498    0.4906       0.30736     -0.07  
C2       C      0.51245      0.9906       0.30736     -0.07  
C2       C      0.51245      0.4906       0.80736     -0.07  
C2       C      0.0124498    0.9906       0.80736     -0.07  
C3       C      0.00493986   0.493679     0.32141     -0.058 
C3       C      0.50494      0.993679     0.32141     -0.058 
C3       C      0.50494      0.493679     0.82141     -0.058 
C3       C      0.00493986   0.993679     0.82141     -0.058 
C3       C      0.17816      0.30231      0.45923     -0.058 
C3       C      0.67816      0.80231      0.45923     -0.058 
C3       C      0.67816      0.30231      0.95923     -0.058 
C3       C      0.17816      0.80231      0.95923     -0.058 
C1       C      0.16978      0.3113       0.48456      0.496 
C1       C      0.66978      0.8113       0.48456      0.496 
C1       C      0.66978      0.3113       0.984559     0.496 
C1       C      0.16978      0.8113       0.984559     0.496 
C2       C      0.16889      0.30018      0.47259     -0.07  
C2       C      0.66889      0.80018      0.47259     -0.07  
C2       C      0.66889      0.30018      0.97259     -0.07  
C2       C      0.16889      0.80018      0.97259     -0.07  
C3       C      0.1571       0.28933      0.47197     -0.058 
C3       C      0.6571       0.78933      0.47197     -0.058 
C3       C      0.6571       0.28933      0.97197     -0.058 
C3       C      0.1571       0.78933      0.97197     -0.058 
C3       C      0.157959     0.30816      0.39347     -0.058 
C3       C      0.657959     0.80816      0.39347     -0.058 
C3       C      0.657959     0.30816      0.89347     -0.058 
C3       C      0.157959     0.80816      0.89347     -0.058 
C1       C      0.15329      0.28092      0.38844      0.496 
C1       C      0.65329      0.78092      0.38844      0.496 
C1       C      0.65329      0.28092      0.88844      0.496 
C1       C      0.15329      0.78092      0.88844      0.496 
C2       C      0.15109      0.29596      0.38504     -0.07  
C2       C      0.65109      0.79596      0.38504     -0.07  
C2       C      0.65109      0.29596      0.88504     -0.07  
C2       C      0.15109      0.79596      0.88504     -0.07  
C3       C      0.15528      0.3231       0.38883     -0.058 
C3       C      0.65528      0.8231       0.38883     -0.058 
C3       C      0.65528      0.3231       0.88883     -0.058 
C3       C      0.15528      0.8231       0.88883     -0.058 
C1       C      0.1397       0.34071      0.37309      0.496 
C1       C      0.6397       0.840709     0.37309      0.496 
C1       C      0.6397       0.34071      0.87309      0.496 
C1       C      0.1397       0.840709     0.87309      0.496 
C2       C      0.142309     0.32589      0.3795      -0.07  
C2       C      0.642309     0.82589      0.3795      -0.07  
C2       C      0.642309     0.32589      0.8795      -0.07  
C2       C      0.142309     0.82589      0.8795      -0.07  
C3       C      0.13776      0.298361     0.37746     -0.058 
C3       C      0.63776      0.798359     0.37746     -0.058 
C3       C      0.63776      0.298361     0.87746     -0.058 
C3       C      0.13776      0.798359     0.87746     -0.058 
C3       C      0.13418      0.3135       0.37311     -0.058 
C3       C      0.63418      0.8135       0.37311     -0.058 
C3       C      0.63418      0.3135       0.87311     -0.058 
C3       C      0.13418      0.8135       0.87311     -0.058 
C3       C      0.0704903    0.32678      0.40471     -0.058 
C3       C      0.57049      0.82678      0.40471     -0.058 
C3       C      0.57049      0.32678      0.90471     -0.058 
C3       C      0.0704903    0.82678      0.90471     -0.058 
C3       C      0.0819903    0.33485      0.39645     -0.058 
C3       C      0.58199      0.83485      0.39645     -0.058 
C3       C      0.58199      0.33485      0.89645     -0.058 
C3       C      0.0819903    0.83485      0.89645     -0.058 
C3       C      0.0929402    0.26355      0.44571     -0.058 
C3       C      0.59294      0.76355      0.44571     -0.058 
C3       C      0.59294      0.26355      0.94571     -0.058 
C3       C      0.0929402    0.76355      0.94571     -0.058 
C1       C      0.0687       0.27464      0.44016      0.496 
C1       C      0.5687       0.77464      0.44016      0.496 
C1       C      0.5687       0.27464      0.94016      0.496 
C1       C      0.0687       0.77464      0.94016      0.496 
C2       C      0.0821096    0.26807      0.43518     -0.07  
C2       C      0.58211      0.76807      0.43518     -0.07  
C2       C      0.58211      0.26807      0.93518     -0.07  
C2       C      0.0821096    0.76807      0.93518     -0.07  
C3       C      0.10578      0.25617      0.44076     -0.058 
C3       C      0.60578      0.75617      0.44076     -0.058 
C3       C      0.60578      0.25617      0.94076     -0.058 
C3       C      0.10578      0.75617      0.94076     -0.058 
C1       C      0.12253      0.25095      0.41918      0.496 
C1       C      0.62253      0.75095      0.41918      0.496 
C1       C      0.62253      0.25095      0.91918      0.496 
C1       C      0.12253      0.75095      0.91918      0.496 
C2       C      0.10825      0.25489      0.42522     -0.07  
C2       C      0.60825      0.75489      0.42522     -0.07  
C2       C      0.60825      0.25489      0.92522     -0.07  
C2       C      0.10825      0.75489      0.92522     -0.07  
C3       C      0.0851602    0.26846      0.41968     -0.058 
C3       C      0.58516      0.76846      0.41968     -0.058 
C3       C      0.58516      0.26846      0.91968     -0.058 
C3       C      0.0851602    0.76846      0.91968     -0.058 
C3       C      0.0984201    0.26171      0.41458     -0.058 
C3       C      0.59842      0.76171      0.41458     -0.058 
C3       C      0.59842      0.26171      0.91458     -0.058 
C3       C      0.0984201    0.76171      0.91458     -0.058 
H1       H      0.913299     0.447495     0.249672     0.108 
H1       H      0.413299     0.947495     0.249672     0.108 
H1       H      0.413299     0.447495     0.749672     0.108 
H1       H      0.913299     0.947495     0.749672     0.108 
H1       H      0.906686     0.44121      0.276373     0.108 
H1       H      0.406686     0.94121      0.276373     0.108 
H1       H      0.406686     0.44121      0.776373     0.108 
H1       H      0.906686     0.94121      0.776373     0.108 
H1       H      0.0677829    0.315441     0.401732     0.108 
H1       H      0.567783     0.815441     0.401732     0.108 
H1       H      0.567783     0.315441     0.901732     0.108 
H1       H      0.0677829    0.815441     0.901732     0.108 
H1       H      0.0858747    0.330635     0.385871     0.108 
H1       H      0.585875     0.830635     0.385871     0.108 
H1       H      0.585875     0.330635     0.885871     0.108 
H1       H      0.0858747    0.830635     0.885871     0.108 
H1       H      0.868168     0.347624     0.428901     0.108 
H1       H      0.368168     0.847624     0.428901     0.108 
H1       H      0.368168     0.347624     0.928901     0.108 
H1       H      0.868168     0.847624     0.928901     0.108 
H1       H      0.523085     0.00284576   0.289301     0.108 
H1       H      0.0230845    0.502846     0.289301     0.108 
H1       H      0.0230845    0.00284576   0.789301     0.108 
H1       H      0.523085     0.502846     0.789301     0.108 
H1       H      0.0774398    0.273812     0.412162     0.108 
H1       H      0.57744      0.773812     0.412162     0.108 
H1       H      0.57744      0.273812     0.912162     0.108 
H1       H      0.0774398    0.773812     0.912162     0.108 
H1       H      0.10105      0.261723     0.402826     0.108 
H1       H      0.60105      0.761723     0.402826     0.108 
H1       H      0.60105      0.261723     0.902826     0.108 
H1       H      0.10105      0.761723     0.902826     0.108 
H1       H      0.091259     0.265798     0.457414     0.108 
H1       H      0.591259     0.765797     0.457414     0.108 
H1       H      0.591259     0.265798     0.957414     0.108 
H1       H      0.091259     0.765797     0.957414     0.108 
H1       H      0.113551     0.251598     0.448741     0.108 
H1       H      0.613551     0.751598     0.448741     0.108 
H1       H      0.613551     0.251598     0.948741     0.108 
H1       H      0.113551     0.751598     0.948741     0.108 
H1       H      0.18482      0.312261     0.458053     0.108 
H1       H      0.684819     0.812261     0.458053     0.108 
H1       H      0.684819     0.312261     0.958053     0.108 
H1       H      0.18482      0.812261     0.958053     0.108 
H1       H      0.148184     0.289666     0.480043     0.108 
H1       H      0.648184     0.789666     0.480043     0.108 
H1       H      0.648184     0.289666     0.980043     0.108 
H1       H      0.148184     0.789666     0.980043     0.108 
H1       H      0.130481     0.289099     0.375009     0.108 
H1       H      0.630481     0.789099     0.375009     0.108 
H1       H      0.630481     0.289099     0.875009     0.108 
H1       H      0.130481     0.789099     0.875009     0.108 
H1       H      0.12544      0.315533     0.365095     0.108 
H1       H      0.62544      0.815533     0.365095     0.108 
H1       H      0.62544      0.315533     0.865095     0.108 
H1       H      0.12544      0.815533     0.865095     0.108 
H1       H      0.164901     0.305729     0.403        0.108 
H1       H      0.664901     0.805729     0.403        0.108 
H1       H      0.664901     0.305729     0.903        0.108 
H1       H      0.164901     0.805729     0.903        0.108 
H1       H      0.162753     0.331891     0.392241     0.108 
H1       H      0.662753     0.831891     0.392241     0.108 
H1       H      0.662753     0.331891     0.892241     0.108 
H1       H      0.162753     0.831891     0.892241     0.108 
H1       H      0.00795328   0.487543     0.331316     0.108 
H1       H      0.507953     0.987543     0.331316     0.108 
H1       H      0.507953     0.487543     0.831316     0.108 
H1       H      0.00795328   0.987543     0.831316     0.108 
Cr2      Cr     0.15527      0.42799      0.237089     1.35  
Cr2      Cr     0.65527      0.92799      0.237089     1.35  
Cr2      Cr     0.65527      0.42799      0.737089     1.35  
Cr2      Cr     0.15527      0.92799      0.737089     1.35  
Cr1      Cr     0.4272       0.29246      0.0415398    1.619 
Cr1      Cr     0.9272       0.79246      0.0415398    1.619 
Cr1      Cr     0.9272       0.29246      0.54154      1.619 
Cr1      Cr     0.4272       0.79246      0.54154      1.619 
O3       O      0.89131      0.40982      0.31964     -0.438 
O3       O      0.39131      0.90982      0.31964     -0.438 
O3       O      0.39131      0.40982      0.81964     -0.438 
O3       O      0.89131      0.90982      0.81964     -0.438 
O2       O      0.4261       0.30587      0.0235403   -0.574 
O2       O      0.9261       0.80587      0.0235403   -0.574 
O2       O      0.9261       0.30587      0.52354     -0.574 
O2       O      0.4261       0.80587      0.52354     -0.574 
O3       O      0.91114      0.32263      0.4493      -0.438 
O3       O      0.41114      0.82263      0.4493      -0.438 
O3       O      0.41114      0.32263      0.9493      -0.438 
O3       O      0.91114      0.82263      0.9493      -0.438 
O2       O      0.0287794    0.27416      0.42932     -0.574 
O2       O      0.528779     0.77416      0.42932     -0.574 
O2       O      0.528779     0.27416      0.92932     -0.574 
O2       O      0.0287794    0.77416      0.92932     -0.574 
O2       O      0.0323701    0.27195      0.454771    -0.574 
O2       O      0.53237      0.77195      0.454771    -0.574 
O2       O      0.53237      0.27195      0.954769    -0.574 
O2       O      0.0323701    0.77195      0.954769    -0.574 
O2       O      0.172989     0.42561      0.26956     -0.574 
O2       O      0.672989     0.92561      0.26956     -0.574 
O2       O      0.672989     0.42561      0.76956     -0.574 
O2       O      0.172989     0.92561      0.76956     -0.574 
O3       O      0.16224      0.44003      0.25308     -0.438 
O3       O      0.66224      0.94003      0.25308     -0.438 
O3       O      0.66224      0.44003      0.75308     -0.438 
O3       O      0.16224      0.94003      0.75308     -0.438 
O3       O      0.16242      0.47279      0.351239    -0.438 
O3       O      0.66242      0.97279      0.351239    -0.438 
O3       O      0.66242      0.47279      0.851239    -0.438 
O3       O      0.16242      0.97279      0.851239    -0.438 
O2       O      0.14226      0.47747      0.36549     -0.574 
O2       O      0.64226      0.97747      0.36549     -0.574 
O2       O      0.64226      0.47747      0.86549     -0.574 
O2       O      0.14226      0.97747      0.86549     -0.574 
O2       O      0.14875      0.39811      0.37448     -0.574 
O2       O      0.64875      0.89811      0.37448     -0.574 
O2       O      0.64875      0.39811      0.87448     -0.574 
O2       O      0.14875      0.89811      0.87448     -0.574 
O2       O      0.12708      0.40693      0.383689    -0.574 
O2       O      0.62708      0.90693      0.383689    -0.574 
O2       O      0.62708      0.40693      0.883689    -0.574 
O2       O      0.12708      0.90693      0.883689    -0.574 
O3       O      0.0563796    0.440889     0.32805     -0.438 
O3       O      0.55638      0.940889     0.32805     -0.438 
O3       O      0.55638      0.440889     0.82805     -0.438 
O3       O      0.0563796    0.940889     0.82805     -0.438 
O2       O      0.10161      0.39622      0.37056     -0.574 
O2       O      0.60161      0.89622      0.37056     -0.574 
O2       O      0.60161      0.39622      0.87056     -0.574 
O2       O      0.10161      0.89622      0.87056     -0.574 
O2       O      0.0647695    0.47624      0.29621     -0.574 
O2       O      0.564769     0.97624      0.29621     -0.574 
O2       O      0.564769     0.47624      0.79621     -0.574 
O2       O      0.0647695    0.97624      0.79621     -0.574 
O3       O      0.0607298    0.46912      0.31945     -0.438 
O3       O      0.56073      0.96912      0.31945     -0.438 
O3       O      0.56073      0.46912      0.81945     -0.438 
O3       O      0.0607298    0.96912      0.81945     -0.438 
O2       O      0.63308      0.00664011   0.32278     -0.574 
O2       O      0.13308      0.50664      0.32278     -0.574 
O2       O      0.13308      0.00664011   0.82278     -0.574 
O2       O      0.63308      0.50664      0.82278     -0.574 
O2       O      0.12353      0.49662      0.34525     -0.574 
O2       O      0.62353      0.99662      0.34525     -0.574 
O2       O      0.62353      0.49662      0.84525     -0.574 
O2       O      0.12353      0.99662      0.84525     -0.574 
F1       F      0.1558       0.4475       0.22474     -0.547 
F1       F      0.6558       0.9475       0.22474     -0.547 
F1       F      0.6558       0.4475       0.72474     -0.547 
F1       F      0.1558       0.9475       0.72474     -0.547 
C3       C      0.8705       0.39071      0.31934     -0.058 
C3       C      0.3705       0.89071      0.31934     -0.058 
C3       C      0.3705       0.39071      0.81934     -0.058 
C3       C      0.8705       0.89071      0.81934     -0.058 
C3       C      0.91837      0.312        0.49493     -0.058 
C3       C      0.41837      0.812        0.49493     -0.058 
C3       C      0.41837      0.312        0.99493     -0.058 
C3       C      0.91837      0.812        0.99493     -0.058 
C3       C      0.91494      0.3153       0.47948     -0.058 
C3       C      0.41494      0.8153       0.47948     -0.058 
C3       C      0.41494      0.3153       0.97948     -0.058 
C3       C      0.91494      0.8153       0.97948     -0.058 
C3       C      0.0137697    0.24748      0.453091    -0.058 
C3       C      0.51377      0.74748      0.453091    -0.058 
C3       C      0.51377      0.24748      0.953089    -0.058 
C3       C      0.0137697    0.74748      0.953089    -0.058 
C1       C      0.0240005    0.27033      0.44264      0.496 
C1       C      0.523999     0.770329     0.44264      0.496 
C1       C      0.523999     0.27033      0.94264      0.496 
C1       C      0.0240005    0.770329     0.94264      0.496 
C2       C      0.0124498    0.2594       0.44264     -0.07  
C2       C      0.51245      0.7594       0.44264     -0.07  
C2       C      0.51245      0.2594       0.94264     -0.07  
C2       C      0.0124498    0.7594       0.94264     -0.07  
C3       C      0.00493986   0.25632      0.42859     -0.058 
C3       C      0.50494      0.75632      0.42859     -0.058 
C3       C      0.50494      0.25632      0.92859     -0.058 
C3       C      0.00493986   0.75632      0.92859     -0.058 
C3       C      0.17816      0.44769      0.29077     -0.058 
C3       C      0.67816      0.94769      0.29077     -0.058 
C3       C      0.67816      0.44769      0.79077     -0.058 
C3       C      0.17816      0.94769      0.79077     -0.058 
C1       C      0.16978      0.4387       0.26544      0.496 
C1       C      0.66978      0.9387       0.26544      0.496 
C1       C      0.66978      0.4387       0.76544      0.496 
C1       C      0.16978      0.9387       0.76544      0.496 
C2       C      0.16889      0.449819     0.277409    -0.07  
C2       C      0.66889      0.949819     0.277409    -0.07  
C2       C      0.66889      0.449819     0.777409    -0.07  
C2       C      0.16889      0.949819     0.777409    -0.07  
C3       C      0.1571       0.46067      0.278029    -0.058 
C3       C      0.6571       0.96067      0.278029    -0.058 
C3       C      0.6571       0.46067      0.778029    -0.058 
C3       C      0.1571       0.96067      0.778029    -0.058 
C3       C      0.157959     0.44184      0.35653     -0.058 
C3       C      0.657959     0.94184      0.35653     -0.058 
C3       C      0.657959     0.44184      0.85653     -0.058 
C3       C      0.157959     0.94184      0.85653     -0.058 
C1       C      0.15329      0.46908      0.36156      0.496 
C1       C      0.65329      0.96908      0.36156      0.496 
C1       C      0.65329      0.46908      0.86156      0.496 
C1       C      0.15329      0.96908      0.86156      0.496 
C2       C      0.15109      0.45404      0.36496     -0.07  
C2       C      0.65109      0.95404      0.36496     -0.07  
C2       C      0.65109      0.45404      0.86496     -0.07  
C2       C      0.15109      0.95404      0.86496     -0.07  
C3       C      0.15528      0.4269       0.36117     -0.058 
C3       C      0.65528      0.9269       0.36117     -0.058 
C3       C      0.65528      0.4269       0.86117     -0.058 
C3       C      0.15528      0.9269       0.86117     -0.058 
C1       C      0.1397       0.40929      0.37691      0.496 
C1       C      0.6397       0.90929      0.37691      0.496 
C1       C      0.6397       0.40929      0.87691      0.496 
C1       C      0.1397       0.90929      0.87691      0.496 
C2       C      0.142309     0.42411      0.3705      -0.07  
C2       C      0.642309     0.92411      0.3705      -0.07  
C2       C      0.642309     0.42411      0.8705      -0.07  
C2       C      0.142309     0.92411      0.8705      -0.07  
C3       C      0.13776      0.45164      0.37254     -0.058 
C3       C      0.63776      0.95164      0.37254     -0.058 
C3       C      0.63776      0.45164      0.872539    -0.058 
C3       C      0.13776      0.95164      0.872539    -0.058 
C3       C      0.13418      0.4365       0.37689     -0.058 
C3       C      0.63418      0.9365       0.37689     -0.058 
C3       C      0.63418      0.4365       0.87689     -0.058 
C3       C      0.13418      0.9365       0.87689     -0.058 
C3       C      0.0704903    0.42322      0.34529     -0.058 
C3       C      0.57049      0.92322      0.34529     -0.058 
C3       C      0.57049      0.42322      0.84529     -0.058 
C3       C      0.0704903    0.92322      0.84529     -0.058 
C3       C      0.0819903    0.41515      0.35355     -0.058 
C3       C      0.58199      0.91515      0.35355     -0.058 
C3       C      0.58199      0.41515      0.85355     -0.058 
C3       C      0.0819903    0.91515      0.85355     -0.058 
C3       C      0.0929402    0.48645      0.304289    -0.058 
C3       C      0.59294      0.98645      0.304289    -0.058 
C3       C      0.59294      0.48645      0.804289    -0.058 
C3       C      0.0929402    0.98645      0.804289    -0.058 
C1       C      0.0687       0.47536      0.30984      0.496 
C1       C      0.5687       0.97536      0.30984      0.496 
C1       C      0.5687       0.47536      0.80984      0.496 
C1       C      0.0687       0.97536      0.80984      0.496 
C2       C      0.0821096    0.48193      0.31482     -0.07  
C2       C      0.58211      0.98193      0.31482     -0.07  
C2       C      0.58211      0.48193      0.81482     -0.07  
C2       C      0.0821096    0.98193      0.81482     -0.07  
C3       C      0.10578      0.49383      0.309239    -0.058 
C3       C      0.60578      0.99383      0.309239    -0.058 
C3       C      0.60578      0.49383      0.809239    -0.058 
C3       C      0.10578      0.99383      0.809239    -0.058 
C1       C      0.12253      0.49905      0.33082      0.496 
C1       C      0.62253      0.99905      0.33082      0.496 
C1       C      0.62253      0.49905      0.83082      0.496 
C1       C      0.12253      0.99905      0.83082      0.496 
C2       C      0.10825      0.49511      0.32478     -0.07  
C2       C      0.60825      0.99511      0.32478     -0.07  
C2       C      0.60825      0.49511      0.82478     -0.07  
C2       C      0.10825      0.99511      0.82478     -0.07  
C3       C      0.0851602    0.48154      0.33032     -0.058 
C3       C      0.58516      0.98154      0.33032     -0.058 
C3       C      0.58516      0.48154      0.83032     -0.058 
C3       C      0.0851602    0.98154      0.83032     -0.058 
C3       C      0.0984201    0.48829      0.33542     -0.058 
C3       C      0.59842      0.98829      0.33542     -0.058 
C3       C      0.59842      0.48829      0.83542     -0.058 
C3       C      0.0984201    0.98829      0.83542     -0.058 
H1       H      0.413299     0.302505     0.000327448  0.108 
H1       H      0.913299     0.802505     0.000327448  0.108 
H1       H      0.913299     0.302505     0.500327     0.108 
H1       H      0.413299     0.802505     0.500327     0.108 
H1       H      0.906686     0.308789     0.473626     0.108 
H1       H      0.406686     0.808789     0.473626     0.108 
H1       H      0.406686     0.308789     0.973626     0.108 
H1       H      0.906686     0.808789     0.973626     0.108 
H1       H      0.0677829    0.434559     0.348268     0.108 
H1       H      0.567783     0.934559     0.348268     0.108 
H1       H      0.567783     0.434559     0.848268     0.108 
H1       H      0.0677829    0.934559     0.848268     0.108 
H1       H      0.0858747    0.419364     0.364128     0.108 
H1       H      0.585875     0.919364     0.364128     0.108 
H1       H      0.585875     0.419364     0.864128     0.108 
H1       H      0.0858747    0.919364     0.864128     0.108 
H1       H      0.868168     0.402375     0.3211       0.108 
H1       H      0.368168     0.902375     0.3211       0.108 
H1       H      0.368168     0.402375     0.8211       0.108 
H1       H      0.868168     0.902375     0.8211       0.108 
H1       H      0.0230845    0.247154     0.460699     0.108 
H1       H      0.523085     0.747154     0.460699     0.108 
H1       H      0.523085     0.247154     0.960699     0.108 
H1       H      0.0230845    0.747154     0.960699     0.108 
H1       H      0.0774398    0.476187     0.337838     0.108 
H1       H      0.57744      0.976187     0.337838     0.108 
H1       H      0.57744      0.476187     0.837838     0.108 
H1       H      0.0774398    0.976187     0.837838     0.108 
H1       H      0.10105      0.488276     0.347174     0.108 
H1       H      0.60105      0.988276     0.347174     0.108 
H1       H      0.60105      0.488276     0.847174     0.108 
H1       H      0.10105      0.988276     0.847174     0.108 
H1       H      0.091259     0.484203     0.292587     0.108 
H1       H      0.591259     0.984203     0.292587     0.108 
H1       H      0.591259     0.484203     0.792587     0.108 
H1       H      0.091259     0.984203     0.792587     0.108 
H1       H      0.113551     0.498402     0.301258     0.108 
H1       H      0.613551     0.998402     0.301258     0.108 
H1       H      0.613551     0.498402     0.801258     0.108 
H1       H      0.113551     0.998402     0.801258     0.108 
H1       H      0.18482      0.437739     0.291948     0.108 
H1       H      0.684819     0.937739     0.291948     0.108 
H1       H      0.684819     0.437739     0.791948     0.108 
H1       H      0.18482      0.937739     0.791948     0.108 
H1       H      0.148184     0.460334     0.269958     0.108 
H1       H      0.648184     0.960334     0.269958     0.108 
H1       H      0.648184     0.460334     0.769958     0.108 
H1       H      0.148184     0.960334     0.769958     0.108 
H1       H      0.130481     0.460902     0.374991     0.108 
H1       H      0.630481     0.960902     0.374991     0.108 
H1       H      0.630481     0.460902     0.874991     0.108 
H1       H      0.130481     0.960902     0.874991     0.108 
H1       H      0.12544      0.434466     0.384905     0.108 
H1       H      0.62544      0.934466     0.384905     0.108 
H1       H      0.62544      0.434466     0.884905     0.108 
H1       H      0.12544      0.934466     0.884905     0.108 
H1       H      0.164901     0.444271     0.347        0.108 
H1       H      0.664901     0.944271     0.347        0.108 
H1       H      0.664901     0.444271     0.847        0.108 
H1       H      0.164901     0.944271     0.847        0.108 
H1       H      0.162753     0.418109     0.357758     0.108 
H1       H      0.662753     0.918109     0.357758     0.108 
H1       H      0.662753     0.418109     0.857758     0.108 
H1       H      0.162753     0.918109     0.857758     0.108 
H1       H      0.00795328   0.262456     0.418685     0.108 
H1       H      0.507953     0.762456     0.418685     0.108 
H1       H      0.507953     0.262456     0.918685     0.108 
H1       H      0.00795328   0.762456     0.918685     0.108 
Cr1      Cr     0.59473      0.32201      0.237089     1.619 
Cr1      Cr     0.0947304    0.82201      0.237089     1.619 
Cr1      Cr     0.0947304    0.32201      0.737089     1.619 
Cr1      Cr     0.59473      0.82201      0.737089     1.619 
Cr1      Cr     0.3228       0.45754      0.0415398    1.619 
Cr1      Cr     0.8228       0.95754      0.0415398    1.619 
Cr1      Cr     0.8228       0.45754      0.54154      1.619 
Cr1      Cr     0.3228       0.95754      0.54154      1.619 
O3       O      0.85869      0.34018      0.31964     -0.438 
O3       O      0.35869      0.840179     0.31964     -0.438 
O3       O      0.35869      0.34018      0.81964     -0.438 
O3       O      0.85869      0.840179     0.81964     -0.438 
O2       O      0.3239       0.44413      0.0235403   -0.574 
O2       O      0.8239       0.94413      0.0235403   -0.574 
O2       O      0.8239       0.44413      0.52354     -0.574 
O2       O      0.3239       0.94413      0.52354     -0.574 
O2       O      0.838859     0.427369     0.4493      -0.574 
O2       O      0.338859     0.927369     0.4493      -0.574 
O2       O      0.338859     0.427369     0.9493      -0.574 
O2       O      0.838859     0.927369     0.9493      -0.574 
O3       O      0.72122      0.47584      0.42932     -0.438 
O3       O      0.22122      0.97584      0.42932     -0.438 
O3       O      0.22122      0.47584      0.92932     -0.438 
O3       O      0.72122      0.97584      0.92932     -0.438 
O2       O      0.71763      0.47805      0.454771    -0.574 
O2       O      0.21763      0.97805      0.454771    -0.574 
O2       O      0.21763      0.47805      0.954769    -0.574 
O2       O      0.71763      0.97805      0.954769    -0.574 
O3       O      0.57701      0.32439      0.26956     -0.438 
O3       O      0.07701      0.82439      0.26956     -0.438 
O3       O      0.07701      0.32439      0.76956     -0.438 
O3       O      0.57701      0.82439      0.76956     -0.438 
O2       O      0.58776      0.30997      0.25308     -0.574 
O2       O      0.0877595    0.80997      0.25308     -0.574 
O2       O      0.0877595    0.30997      0.75308     -0.574 
O2       O      0.58776      0.80997      0.75308     -0.574 
O2       O      0.587579     0.27721      0.351239    -0.574 
O2       O      0.0875795    0.77721      0.351239    -0.574 
O2       O      0.0875795    0.27721      0.851239    -0.574 
O2       O      0.587579     0.77721      0.851239    -0.574 
O2       O      0.607739     0.27253      0.36549     -0.574 
O2       O      0.107739     0.77253      0.36549     -0.574 
O2       O      0.107739     0.27253      0.86549     -0.574 
O2       O      0.607739     0.77253      0.86549     -0.574 
O2       O      0.60125      0.35189      0.37448     -0.574 
O2       O      0.10125      0.85189      0.37448     -0.574 
O2       O      0.10125      0.35189      0.87448     -0.574 
O2       O      0.60125      0.85189      0.87448     -0.574 
O2       O      0.62292      0.34307      0.383689    -0.574 
O2       O      0.12292      0.84307      0.383689    -0.574 
O2       O      0.12292      0.34307      0.883689    -0.574 
O2       O      0.62292      0.84307      0.883689    -0.574 
O2       O      0.69362      0.30911      0.32805     -0.574 
O2       O      0.19362      0.80911      0.32805     -0.574 
O2       O      0.19362      0.30911      0.82805     -0.574 
O2       O      0.69362      0.80911      0.82805     -0.574 
O2       O      0.64839      0.35378      0.37056     -0.574 
O2       O      0.14839      0.85378      0.37056     -0.574 
O2       O      0.14839      0.35378      0.87056     -0.574 
O2       O      0.64839      0.85378      0.87056     -0.574 
O2       O      0.68523      0.27376      0.29621     -0.574 
O2       O      0.18523      0.77376      0.29621     -0.574 
O2       O      0.18523      0.27376      0.79621     -0.574 
O2       O      0.68523      0.77376      0.79621     -0.574 
O2       O      0.68927      0.28088      0.31945     -0.574 
O2       O      0.18927      0.78088      0.31945     -0.574 
O2       O      0.18927      0.28088      0.81945     -0.574 
O2       O      0.68927      0.78088      0.81945     -0.574 
O3       O      0.61692      0.24336      0.32278     -0.438 
O3       O      0.11692      0.74336      0.32278     -0.438 
O3       O      0.11692      0.24336      0.82278     -0.438 
O3       O      0.61692      0.74336      0.82278     -0.438 
O2       O      0.62647      0.25338      0.34525     -0.574 
O2       O      0.12647      0.75338      0.34525     -0.574 
O2       O      0.12647      0.25338      0.84525     -0.574 
O2       O      0.62647      0.75338      0.84525     -0.574 
C3       C      0.8795       0.35929      0.31934     -0.058 
C3       C      0.3795       0.85929      0.31934     -0.058 
C3       C      0.3795       0.35929      0.81934     -0.058 
C3       C      0.8795       0.85929      0.81934     -0.058 
C3       C      0.83163      0.438        0.49493     -0.058 
C3       C      0.33163      0.938        0.49493     -0.058 
C3       C      0.33163      0.438        0.99493     -0.058 
C3       C      0.83163      0.938        0.99493     -0.058 
C3       C      0.835059     0.434701     0.47948     -0.058 
C3       C      0.335059     0.934699     0.47948     -0.058 
C3       C      0.335059     0.434701     0.97948     -0.058 
C3       C      0.835059     0.934699     0.97948     -0.058 
C3       C      0.23623      0.00252056   0.453091    -0.058 
C3       C      0.73623      0.502519     0.453091    -0.058 
C3       C      0.73623      0.00252056   0.953089    -0.058 
C3       C      0.23623      0.502519     0.953089    -0.058 
C1       C      0.726        0.47967      0.44264      0.496 
C1       C      0.226        0.97967      0.44264      0.496 
C1       C      0.226        0.47967      0.94264      0.496 
C1       C      0.726        0.97967      0.94264      0.496 
C2       C      0.73755      0.4906       0.44264     -0.07  
C2       C      0.23755      0.9906       0.44264     -0.07  
C2       C      0.23755      0.4906       0.94264     -0.07  
C2       C      0.73755      0.9906       0.94264     -0.07  
C3       C      0.74506      0.493679     0.42859     -0.058 
C3       C      0.24506      0.993679     0.42859     -0.058 
C3       C      0.24506      0.493679     0.92859     -0.058 
C3       C      0.74506      0.993679     0.92859     -0.058 
C3       C      0.571839     0.30231      0.29077     -0.058 
C3       C      0.0718394    0.80231      0.29077     -0.058 
C3       C      0.0718394    0.30231      0.79077     -0.058 
C3       C      0.571839     0.80231      0.79077     -0.058 
C1       C      0.58022      0.3113       0.26544      0.496 
C1       C      0.0802203    0.8113       0.26544      0.496 
C1       C      0.0802203    0.3113       0.76544      0.496 
C1       C      0.58022      0.8113       0.76544      0.496 
C2       C      0.58111      0.30018      0.277409    -0.07  
C2       C      0.0811104    0.80018      0.277409    -0.07  
C2       C      0.0811104    0.30018      0.777409    -0.07  
C2       C      0.58111      0.80018      0.777409    -0.07  
C3       C      0.5929       0.28933      0.278029    -0.058 
C3       C      0.0928997    0.78933      0.278029    -0.058 
C3       C      0.0928997    0.28933      0.778029    -0.058 
C3       C      0.5929       0.78933      0.778029    -0.058 
C3       C      0.59204      0.30816      0.35653     -0.058 
C3       C      0.09204      0.80816      0.35653     -0.058 
C3       C      0.09204      0.30816      0.85653     -0.058 
C3       C      0.59204      0.80816      0.85653     -0.058 
C1       C      0.59671      0.28092      0.36156      0.496 
C1       C      0.0967098    0.78092      0.36156      0.496 
C1       C      0.0967098    0.28092      0.86156      0.496 
C1       C      0.59671      0.78092      0.86156      0.496 
C2       C      0.59891      0.29596      0.36496     -0.07  
C2       C      0.0989096    0.79596      0.36496     -0.07  
C2       C      0.0989096    0.29596      0.86496     -0.07  
C2       C      0.59891      0.79596      0.86496     -0.07  
C3       C      0.59472      0.3231       0.36117     -0.058 
C3       C      0.0947203    0.8231       0.36117     -0.058 
C3       C      0.0947203    0.3231       0.86117     -0.058 
C3       C      0.59472      0.8231       0.86117     -0.058 
C1       C      0.610299     0.34071      0.37691      0.496 
C1       C      0.110299     0.840709     0.37691      0.496 
C1       C      0.110299     0.34071      0.87691      0.496 
C1       C      0.610299     0.840709     0.87691      0.496 
C2       C      0.60769      0.32589      0.3705      -0.07  
C2       C      0.10769      0.82589      0.3705      -0.07  
C2       C      0.10769      0.32589      0.8705      -0.07  
C2       C      0.60769      0.82589      0.8705      -0.07  
C3       C      0.612239     0.298361     0.37254     -0.058 
C3       C      0.11224      0.798359     0.37254     -0.058 
C3       C      0.11224      0.298361     0.872539    -0.058 
C3       C      0.612239     0.798359     0.872539    -0.058 
C3       C      0.61582      0.3135       0.37689     -0.058 
C3       C      0.11582      0.8135       0.37689     -0.058 
C3       C      0.11582      0.3135       0.87689     -0.058 
C3       C      0.61582      0.8135       0.87689     -0.058 
C3       C      0.67951      0.32678      0.34529     -0.058 
C3       C      0.17951      0.82678      0.34529     -0.058 
C3       C      0.17951      0.32678      0.84529     -0.058 
C3       C      0.67951      0.82678      0.84529     -0.058 
C3       C      0.66801      0.33485      0.35355     -0.058 
C3       C      0.16801      0.83485      0.35355     -0.058 
C3       C      0.16801      0.33485      0.85355     -0.058 
C3       C      0.66801      0.83485      0.85355     -0.058 
C3       C      0.65706      0.26355      0.304289    -0.058 
C3       C      0.15706      0.76355      0.304289    -0.058 
C3       C      0.15706      0.26355      0.804289    -0.058 
C3       C      0.65706      0.76355      0.804289    -0.058 
C1       C      0.681299     0.27464      0.30984      0.496 
C1       C      0.181299     0.77464      0.30984      0.496 
C1       C      0.181299     0.27464      0.80984      0.496 
C1       C      0.681299     0.77464      0.80984      0.496 
C2       C      0.66789      0.26807      0.31482     -0.07  
C2       C      0.16789      0.76807      0.31482     -0.07  
C2       C      0.16789      0.26807      0.81482     -0.07  
C2       C      0.66789      0.76807      0.81482     -0.07  
C3       C      0.64422      0.25617      0.309239    -0.058 
C3       C      0.14422      0.75617      0.309239    -0.058 
C3       C      0.14422      0.25617      0.809239    -0.058 
C3       C      0.64422      0.75617      0.809239    -0.058 
C1       C      0.62747      0.25095      0.33082      0.496 
C1       C      0.12747      0.75095      0.33082      0.496 
C1       C      0.12747      0.25095      0.83082      0.496 
C1       C      0.62747      0.75095      0.83082      0.496 
C2       C      0.64175      0.25489      0.32478     -0.07  
C2       C      0.14175      0.75489      0.32478     -0.07  
C2       C      0.14175      0.25489      0.82478     -0.07  
C2       C      0.64175      0.75489      0.82478     -0.07  
C3       C      0.66484      0.26846      0.33032     -0.058 
C3       C      0.16484      0.76846      0.33032     -0.058 
C3       C      0.16484      0.26846      0.83032     -0.058 
C3       C      0.66484      0.76846      0.83032     -0.058 
C3       C      0.65158      0.26171      0.33542     -0.058 
C3       C      0.15158      0.76171      0.33542     -0.058 
C3       C      0.15158      0.26171      0.83542     -0.058 
C3       C      0.65158      0.76171      0.83542     -0.058 
H1       H      0.3367       0.447495     0.000327448  0.108 
H1       H      0.8367       0.947495     0.000327448  0.108 
H1       H      0.8367       0.447495     0.500327     0.108 
H1       H      0.3367       0.947495     0.500327     0.108 
H1       H      0.843313     0.44121      0.473626     0.108 
H1       H      0.343313     0.94121      0.473626     0.108 
H1       H      0.343313     0.44121      0.973626     0.108 
H1       H      0.843313     0.94121      0.973626     0.108 
H1       H      0.682218     0.315441     0.348268     0.108 
H1       H      0.182218     0.815441     0.348268     0.108 
H1       H      0.182218     0.315441     0.848268     0.108 
H1       H      0.682218     0.815441     0.848268     0.108 
H1       H      0.664125     0.330635     0.364128     0.108 
H1       H      0.164125     0.830635     0.364128     0.108 
H1       H      0.164125     0.330635     0.864128     0.108 
H1       H      0.664125     0.830635     0.864128     0.108 
H1       H      0.881832     0.347624     0.3211       0.108 
H1       H      0.381832     0.847624     0.3211       0.108 
H1       H      0.381832     0.347624     0.8211       0.108 
H1       H      0.881832     0.847624     0.8211       0.108 
H1       H      0.226915     0.00284576   0.460699     0.108 
H1       H      0.726915     0.502846     0.460699     0.108 
H1       H      0.726915     0.00284576   0.960699     0.108 
H1       H      0.226915     0.502846     0.960699     0.108 
H1       H      0.672561     0.273812     0.337838     0.108 
H1       H      0.172561     0.773812     0.337838     0.108 
H1       H      0.172561     0.273812     0.837838     0.108 
H1       H      0.672561     0.773812     0.837838     0.108 
H1       H      0.64895      0.261723     0.347174     0.108 
H1       H      0.14895      0.761723     0.347174     0.108 
H1       H      0.14895      0.261723     0.847174     0.108 
H1       H      0.64895      0.761723     0.847174     0.108 
H1       H      0.65874      0.265798     0.292587     0.108 
H1       H      0.15874      0.765797     0.292587     0.108 
H1       H      0.15874      0.265798     0.792587     0.108 
H1       H      0.65874      0.765797     0.792587     0.108 
H1       H      0.636449     0.251598     0.301258     0.108 
H1       H      0.136449     0.751598     0.301258     0.108 
H1       H      0.136449     0.251598     0.801258     0.108 
H1       H      0.636449     0.751598     0.801258     0.108 
H1       H      0.56518      0.312261     0.291948     0.108 
H1       H      0.0651802    0.812261     0.291948     0.108 
H1       H      0.0651802    0.312261     0.791948     0.108 
H1       H      0.56518      0.812261     0.791948     0.108 
H1       H      0.601816     0.289666     0.269958     0.108 
H1       H      0.101816     0.789666     0.269958     0.108 
H1       H      0.101816     0.289666     0.769958     0.108 
H1       H      0.601816     0.789666     0.769958     0.108 
H1       H      0.619519     0.289099     0.374991     0.108 
H1       H      0.119519     0.789099     0.374991     0.108 
H1       H      0.119519     0.289099     0.874991     0.108 
H1       H      0.619519     0.789099     0.874991     0.108 
H1       H      0.624561     0.315533     0.384905     0.108 
H1       H      0.124561     0.815533     0.384905     0.108 
H1       H      0.124561     0.315533     0.884905     0.108 
H1       H      0.624561     0.815533     0.884905     0.108 
H1       H      0.585098     0.305729     0.347        0.108 
H1       H      0.0850983    0.805729     0.347        0.108 
H1       H      0.0850983    0.305729     0.847        0.108 
H1       H      0.585098     0.805729     0.847        0.108 
H1       H      0.587248     0.331891     0.357758     0.108 
H1       H      0.0872475    0.831891     0.357758     0.108 
H1       H      0.0872475    0.331891     0.857758     0.108 
H1       H      0.587248     0.831891     0.857758     0.108 
H1       H      0.742047     0.487543     0.418685     0.108 
H1       H      0.242047     0.987543     0.418685     0.108 
H1       H      0.242047     0.487543     0.918685     0.108 
H1       H      0.742047     0.987543     0.918685     0.108 
Cr1      Cr     0.01291      0.0947304    0.42799      1.619 
Cr1      Cr     0.51291      0.59473      0.42799      1.619 
Cr1      Cr     0.51291      0.0947304    0.92799      1.619 
Cr1      Cr     0.01291      0.59473      0.92799      1.619 
Cr2      Cr     0.70846      0.3228       0.29246      1.35  
Cr2      Cr     0.20846      0.8228       0.29246      1.35  
Cr2      Cr     0.20846      0.3228       0.79246      1.35  
Cr2      Cr     0.70846      0.8228       0.79246      1.35  
O2       O      0.93036      0.35869      0.40982     -0.574 
O2       O      0.43036      0.85869      0.40982     -0.574 
O2       O      0.43036      0.35869      0.90982     -0.574 
O2       O      0.93036      0.85869      0.90982     -0.574 
O3       O      0.72646      0.3239       0.30587     -0.438 
O3       O      0.22646      0.8239       0.30587     -0.438 
O3       O      0.22646      0.3239       0.80587     -0.438 
O3       O      0.72646      0.8239       0.80587     -0.438 
O2       O      0.8007       0.338859     0.32263     -0.574 
O2       O      0.3007       0.838859     0.32263     -0.574 
O2       O      0.3007       0.338859     0.82263     -0.574 
O2       O      0.8007       0.838859     0.82263     -0.574 
O2       O      0.82068      0.22122      0.27416     -0.574 
O2       O      0.32068      0.72122      0.27416     -0.574 
O2       O      0.32068      0.22122      0.77416     -0.574 
O2       O      0.82068      0.72122      0.77416     -0.574 
O2       O      0.79523      0.21763      0.27195     -0.574 
O2       O      0.29523      0.71763      0.27195     -0.574 
O2       O      0.29523      0.21763      0.77195     -0.574 
O2       O      0.79523      0.71763      0.77195     -0.574 
O3       O      0.98044      0.07701      0.42561     -0.438 
O3       O      0.48044      0.57701      0.42561     -0.438 
O3       O      0.48044      0.07701      0.92561     -0.438 
O3       O      0.98044      0.57701      0.92561     -0.438 
O2       O      0.99692      0.0877595    0.44003     -0.574 
O2       O      0.49692      0.58776      0.44003     -0.574 
O2       O      0.49692      0.0877595    0.94003     -0.574 
O2       O      0.99692      0.58776      0.94003     -0.574 
O2       O      0.89876      0.0875795    0.47279     -0.574 
O2       O      0.39876      0.587579     0.47279     -0.574 
O2       O      0.39876      0.0875795    0.97279     -0.574 
O2       O      0.89876      0.587579     0.97279     -0.574 
O2       O      0.88451      0.107739     0.47747     -0.574 
O2       O      0.38451      0.607739     0.47747     -0.574 
O2       O      0.38451      0.107739     0.97747     -0.574 
O2       O      0.88451      0.607739     0.97747     -0.574 
O2       O      0.87552      0.10125      0.39811     -0.574 
O2       O      0.37552      0.60125      0.39811     -0.574 
O2       O      0.37552      0.10125      0.89811     -0.574 
O2       O      0.87552      0.60125      0.89811     -0.574 
O3       O      0.86631      0.12292      0.40693     -0.438 
O3       O      0.36631      0.62292      0.40693     -0.438 
O3       O      0.36631      0.12292      0.90693     -0.438 
O3       O      0.86631      0.62292      0.90693     -0.438 
O2       O      0.92195      0.19362      0.440889    -0.574 
O2       O      0.42195      0.69362      0.440889    -0.574 
O2       O      0.42195      0.19362      0.940889    -0.574 
O2       O      0.92195      0.69362      0.940889    -0.574 
O3       O      0.879439     0.14839      0.39622     -0.438 
O3       O      0.379439     0.64839      0.39622     -0.438 
O3       O      0.379439     0.14839      0.89622     -0.438 
O3       O      0.879439     0.64839      0.89622     -0.438 
O2       O      0.95379      0.18523      0.47624     -0.574 
O2       O      0.45379      0.68523      0.47624     -0.574 
O2       O      0.45379      0.18523      0.97624     -0.574 
O2       O      0.95379      0.68523      0.97624     -0.574 
O2       O      0.930549     0.18927      0.46912     -0.574 
O2       O      0.430549     0.68927      0.46912     -0.574 
O2       O      0.430549     0.18927      0.96912     -0.574 
O2       O      0.930549     0.68927      0.96912     -0.574 
O3       O      0.42722      0.11692      0.00664011  -0.438 
O3       O      0.92722      0.61692      0.00664011  -0.438 
O3       O      0.92722      0.11692      0.50664     -0.438 
O3       O      0.42722      0.61692      0.50664     -0.438 
O2       O      0.90475      0.12647      0.49662     -0.574 
O2       O      0.40475      0.62647      0.49662     -0.574 
O2       O      0.40475      0.12647      0.99662     -0.574 
O2       O      0.90475      0.62647      0.99662     -0.574 
F1       F      0.71087      0.34415      0.288729    -0.547 
F1       F      0.21087      0.84415      0.288729    -0.547 
F1       F      0.21087      0.34415      0.788729    -0.547 
F1       F      0.71087      0.84415      0.788729    -0.547 
C3       C      0.93066      0.3795       0.39071     -0.058 
C3       C      0.43066      0.8795       0.39071     -0.058 
C3       C      0.43066      0.3795       0.89071     -0.058 
C3       C      0.93066      0.8795       0.89071     -0.058 
C3       C      0.75507      0.33163      0.312       -0.058 
C3       C      0.25507      0.83163      0.312       -0.058 
C3       C      0.25507      0.33163      0.812       -0.058 
C3       C      0.75507      0.83163      0.812       -0.058 
C3       C      0.77052      0.335059     0.3153      -0.058 
C3       C      0.27052      0.835059     0.3153      -0.058 
C3       C      0.27052      0.335059     0.8153      -0.058 
C3       C      0.77052      0.835059     0.8153      -0.058 
C3       C      0.79691      0.23623      0.24748     -0.058 
C3       C      0.29691      0.73623      0.24748     -0.058 
C3       C      0.29691      0.23623      0.74748     -0.058 
C3       C      0.79691      0.73623      0.74748     -0.058 
C1       C      0.80736      0.226        0.27033      0.496 
C1       C      0.30736      0.726        0.27033      0.496 
C1       C      0.30736      0.226        0.770329     0.496 
C1       C      0.80736      0.726        0.770329     0.496 
C2       C      0.80736      0.23755      0.2594      -0.07  
C2       C      0.30736      0.73755      0.2594      -0.07  
C2       C      0.30736      0.23755      0.7594      -0.07  
C2       C      0.80736      0.73755      0.7594      -0.07  
C3       C      0.82141      0.24506      0.25632     -0.058 
C3       C      0.32141      0.74506      0.25632     -0.058 
C3       C      0.32141      0.24506      0.75632     -0.058 
C3       C      0.82141      0.74506      0.75632     -0.058 
C3       C      0.95923      0.0718394    0.44769     -0.058 
C3       C      0.45923      0.571839     0.44769     -0.058 
C3       C      0.45923      0.0718394    0.94769     -0.058 
C3       C      0.95923      0.571839     0.94769     -0.058 
C1       C      0.984559     0.0802203    0.4387       0.496 
C1       C      0.48456      0.58022      0.4387       0.496 
C1       C      0.48456      0.0802203    0.9387       0.496 
C1       C      0.984559     0.58022      0.9387       0.496 
C2       C      0.97259      0.0811104    0.449819    -0.07  
C2       C      0.47259      0.58111      0.449819    -0.07  
C2       C      0.47259      0.0811104    0.949819    -0.07  
C2       C      0.97259      0.58111      0.949819    -0.07  
C3       C      0.97197      0.0928997    0.46067     -0.058 
C3       C      0.47197      0.5929       0.46067     -0.058 
C3       C      0.47197      0.0928997    0.96067     -0.058 
C3       C      0.97197      0.5929       0.96067     -0.058 
C3       C      0.89347      0.09204      0.44184     -0.058 
C3       C      0.39347      0.59204      0.44184     -0.058 
C3       C      0.39347      0.09204      0.94184     -0.058 
C3       C      0.89347      0.59204      0.94184     -0.058 
C1       C      0.88844      0.0967098    0.46908      0.496 
C1       C      0.38844      0.59671      0.46908      0.496 
C1       C      0.38844      0.0967098    0.96908      0.496 
C1       C      0.88844      0.59671      0.96908      0.496 
C2       C      0.88504      0.0989096    0.45404     -0.07  
C2       C      0.38504      0.59891      0.45404     -0.07  
C2       C      0.38504      0.0989096    0.95404     -0.07  
C2       C      0.88504      0.59891      0.95404     -0.07  
C3       C      0.88883      0.0947203    0.4269      -0.058 
C3       C      0.38883      0.59472      0.4269      -0.058 
C3       C      0.38883      0.0947203    0.9269      -0.058 
C3       C      0.88883      0.59472      0.9269      -0.058 
C1       C      0.87309      0.110299     0.40929      0.496 
C1       C      0.37309      0.610299     0.40929      0.496 
C1       C      0.37309      0.110299     0.90929      0.496 
C1       C      0.87309      0.610299     0.90929      0.496 
C2       C      0.8795       0.10769      0.42411     -0.07  
C2       C      0.3795       0.60769      0.42411     -0.07  
C2       C      0.3795       0.10769      0.92411     -0.07  
C2       C      0.8795       0.60769      0.92411     -0.07  
C3       C      0.87746      0.11224      0.45164     -0.058 
C3       C      0.37746      0.612239     0.45164     -0.058 
C3       C      0.37746      0.11224      0.95164     -0.058 
C3       C      0.87746      0.612239     0.95164     -0.058 
C3       C      0.87311      0.11582      0.4365      -0.058 
C3       C      0.37311      0.61582      0.4365      -0.058 
C3       C      0.37311      0.11582      0.9365      -0.058 
C3       C      0.87311      0.61582      0.9365      -0.058 
C3       C      0.90471      0.17951      0.42322     -0.058 
C3       C      0.40471      0.67951      0.42322     -0.058 
C3       C      0.40471      0.17951      0.92322     -0.058 
C3       C      0.90471      0.67951      0.92322     -0.058 
C3       C      0.89645      0.16801      0.41515     -0.058 
C3       C      0.39645      0.66801      0.41515     -0.058 
C3       C      0.39645      0.16801      0.91515     -0.058 
C3       C      0.89645      0.66801      0.91515     -0.058 
C3       C      0.94571      0.15706      0.48645     -0.058 
C3       C      0.44571      0.65706      0.48645     -0.058 
C3       C      0.44571      0.15706      0.98645     -0.058 
C3       C      0.94571      0.65706      0.98645     -0.058 
C1       C      0.94016      0.181299     0.47536      0.496 
C1       C      0.44016      0.681299     0.47536      0.496 
C1       C      0.44016      0.181299     0.97536      0.496 
C1       C      0.94016      0.681299     0.97536      0.496 
C2       C      0.93518      0.16789      0.48193     -0.07  
C2       C      0.43518      0.66789      0.48193     -0.07  
C2       C      0.43518      0.16789      0.98193     -0.07  
C2       C      0.93518      0.66789      0.98193     -0.07  
C3       C      0.94076      0.14422      0.49383     -0.058 
C3       C      0.44076      0.64422      0.49383     -0.058 
C3       C      0.44076      0.14422      0.99383     -0.058 
C3       C      0.94076      0.64422      0.99383     -0.058 
C1       C      0.91918      0.12747      0.49905      0.496 
C1       C      0.41918      0.62747      0.49905      0.496 
C1       C      0.41918      0.12747      0.99905      0.496 
C1       C      0.91918      0.62747      0.99905      0.496 
C2       C      0.92522      0.14175      0.49511     -0.07  
C2       C      0.42522      0.64175      0.49511     -0.07  
C2       C      0.42522      0.14175      0.99511     -0.07  
C2       C      0.92522      0.64175      0.99511     -0.07  
C3       C      0.91968      0.16484      0.48154     -0.058 
C3       C      0.41968      0.66484      0.48154     -0.058 
C3       C      0.41968      0.16484      0.98154     -0.058 
C3       C      0.91968      0.66484      0.98154     -0.058 
C3       C      0.91458      0.15158      0.48829     -0.058 
C3       C      0.41458      0.65158      0.48829     -0.058 
C3       C      0.41458      0.15158      0.98829     -0.058 
C3       C      0.91458      0.65158      0.98829     -0.058 
H1       H      0.749672     0.3367       0.302505     0.108 
H1       H      0.249672     0.8367       0.302505     0.108 
H1       H      0.249672     0.3367       0.802505     0.108 
H1       H      0.749672     0.8367       0.802505     0.108 
H1       H      0.776373     0.343313     0.308789     0.108 
H1       H      0.276373     0.843313     0.308789     0.108 
H1       H      0.276373     0.343313     0.808789     0.108 
H1       H      0.776373     0.843313     0.808789     0.108 
H1       H      0.901732     0.182218     0.434559     0.108 
H1       H      0.401732     0.682218     0.434559     0.108 
H1       H      0.401732     0.182218     0.934559     0.108 
H1       H      0.901732     0.682218     0.934559     0.108 
H1       H      0.885871     0.164125     0.419364     0.108 
H1       H      0.385871     0.664125     0.419364     0.108 
H1       H      0.385871     0.164125     0.919364     0.108 
H1       H      0.885871     0.664125     0.919364     0.108 
H1       H      0.928901     0.381832     0.402375     0.108 
H1       H      0.428901     0.881832     0.402375     0.108 
H1       H      0.428901     0.381832     0.902375     0.108 
H1       H      0.928901     0.881832     0.902375     0.108 
H1       H      0.789301     0.226915     0.247154     0.108 
H1       H      0.289301     0.726915     0.247154     0.108 
H1       H      0.289301     0.226915     0.747154     0.108 
H1       H      0.789301     0.726915     0.747154     0.108 
H1       H      0.912162     0.172561     0.476187     0.108 
H1       H      0.412162     0.672561     0.476187     0.108 
H1       H      0.412162     0.172561     0.976187     0.108 
H1       H      0.912162     0.672561     0.976187     0.108 
H1       H      0.902826     0.14895      0.488276     0.108 
H1       H      0.402826     0.64895      0.488276     0.108 
H1       H      0.402826     0.14895      0.988276     0.108 
H1       H      0.902826     0.64895      0.988276     0.108 
H1       H      0.957414     0.15874      0.484203     0.108 
H1       H      0.457414     0.65874      0.484203     0.108 
H1       H      0.457414     0.15874      0.984203     0.108 
H1       H      0.957414     0.65874      0.984203     0.108 
H1       H      0.948741     0.136449     0.498402     0.108 
H1       H      0.448741     0.636449     0.498402     0.108 
H1       H      0.448741     0.136449     0.998402     0.108 
H1       H      0.948741     0.636449     0.998402     0.108 
H1       H      0.958053     0.0651802    0.437739     0.108 
H1       H      0.458053     0.56518      0.437739     0.108 
H1       H      0.458053     0.0651802    0.937739     0.108 
H1       H      0.958053     0.56518      0.937739     0.108 
H1       H      0.980043     0.101816     0.460334     0.108 
H1       H      0.480043     0.601816     0.460334     0.108 
H1       H      0.480043     0.101816     0.960334     0.108 
H1       H      0.980043     0.601816     0.960334     0.108 
H1       H      0.875009     0.119519     0.460902     0.108 
H1       H      0.375009     0.619519     0.460902     0.108 
H1       H      0.375009     0.119519     0.960902     0.108 
H1       H      0.875009     0.619519     0.960902     0.108 
H1       H      0.865095     0.124561     0.434466     0.108 
H1       H      0.365095     0.624561     0.434466     0.108 
H1       H      0.365095     0.124561     0.934466     0.108 
H1       H      0.865095     0.624561     0.934466     0.108 
H1       H      0.903        0.0850983    0.444271     0.108 
H1       H      0.403        0.585098     0.444271     0.108 
H1       H      0.403        0.0850983    0.944271     0.108 
H1       H      0.903        0.585098     0.944271     0.108 
H1       H      0.892241     0.0872475    0.418109     0.108 
H1       H      0.392241     0.587248     0.418109     0.108 
H1       H      0.392241     0.0872475    0.918109     0.108 
H1       H      0.892241     0.587248     0.918109     0.108 
H1       H      0.831316     0.242047     0.262456     0.108 
H1       H      0.331316     0.742047     0.262456     0.108 
H1       H      0.331316     0.242047     0.762456     0.108 
H1       H      0.831316     0.742047     0.762456     0.108 
Cr1      Cr     0.51291      0.15527      0.32201      1.619 
Cr1      Cr     0.01291      0.65527      0.32201      1.619 
Cr1      Cr     0.01291      0.15527      0.82201      1.619 
Cr1      Cr     0.51291      0.65527      0.82201      1.619 
Cr1      Cr     0.70846      0.4272       0.45754      1.619 
Cr1      Cr     0.20846      0.9272       0.45754      1.619 
Cr1      Cr     0.20846      0.4272       0.95754      1.619 
Cr1      Cr     0.70846      0.9272       0.95754      1.619 
O2       O      0.93036      0.39131      0.34018     -0.574 
O2       O      0.43036      0.89131      0.34018     -0.574 
O2       O      0.43036      0.39131      0.840179    -0.574 
O2       O      0.93036      0.89131      0.840179    -0.574 
O2       O      0.72646      0.4261       0.44413     -0.574 
O2       O      0.22646      0.9261       0.44413     -0.574 
O2       O      0.22646      0.4261       0.94413     -0.574 
O2       O      0.72646      0.9261       0.94413     -0.574 
O3       O      0.8007       0.41114      0.427369    -0.438 
O3       O      0.3007       0.91114      0.427369    -0.438 
O3       O      0.3007       0.41114      0.927369    -0.438 
O3       O      0.8007       0.91114      0.927369    -0.438 
O2       O      0.32068      0.0287794    0.47584     -0.574 
O2       O      0.82068      0.528779     0.47584     -0.574 
O2       O      0.82068      0.0287794    0.97584     -0.574 
O2       O      0.32068      0.528779     0.97584     -0.574 
O3       O      0.29523      0.0323701    0.47805     -0.438 
O3       O      0.79523      0.53237      0.47805     -0.438 
O3       O      0.79523      0.0323701    0.97805     -0.438 
O3       O      0.29523      0.53237      0.97805     -0.438 
O3       O      0.48044      0.172989     0.32439     -0.438 
O3       O      0.98044      0.672989     0.32439     -0.438 
O3       O      0.98044      0.172989     0.82439     -0.438 
O3       O      0.48044      0.672989     0.82439     -0.438 
O2       O      0.49692      0.16224      0.30997     -0.574 
O2       O      0.99692      0.66224      0.30997     -0.574 
O2       O      0.99692      0.16224      0.80997     -0.574 
O2       O      0.49692      0.66224      0.80997     -0.574 
O2       O      0.39876      0.16242      0.27721     -0.574 
O2       O      0.89876      0.66242      0.27721     -0.574 
O2       O      0.89876      0.16242      0.77721     -0.574 
O2       O      0.39876      0.66242      0.77721     -0.574 
O3       O      0.38451      0.14226      0.27253     -0.438 
O3       O      0.88451      0.64226      0.27253     -0.438 
O3       O      0.88451      0.14226      0.77253     -0.438 
O3       O      0.38451      0.64226      0.77253     -0.438 
O3       O      0.37552      0.14875      0.35189     -0.438 
O3       O      0.87552      0.64875      0.35189     -0.438 
O3       O      0.87552      0.14875      0.85189     -0.438 
O3       O      0.37552      0.64875      0.85189     -0.438 
O2       O      0.36631      0.12708      0.34307     -0.574 
O2       O      0.86631      0.62708      0.34307     -0.574 
O2       O      0.86631      0.12708      0.84307     -0.574 
O2       O      0.36631      0.62708      0.84307     -0.574 
O2       O      0.42195      0.0563796    0.30911     -0.574 
O2       O      0.92195      0.55638      0.30911     -0.574 
O2       O      0.92195      0.0563796    0.80911     -0.574 
O2       O      0.42195      0.55638      0.80911     -0.574 
O2       O      0.379439     0.10161      0.35378     -0.574 
O2       O      0.879439     0.60161      0.35378     -0.574 
O2       O      0.879439     0.10161      0.85378     -0.574 
O2       O      0.379439     0.60161      0.85378     -0.574 
O3       O      0.45379      0.0647695    0.27376     -0.438 
O3       O      0.95379      0.564769     0.27376     -0.438 
O3       O      0.95379      0.0647695    0.77376     -0.438 
O3       O      0.45379      0.564769     0.77376     -0.438 
O2       O      0.430549     0.0607298    0.28088     -0.574 
O2       O      0.930549     0.56073      0.28088     -0.574 
O2       O      0.930549     0.0607298    0.78088     -0.574 
O2       O      0.430549     0.56073      0.78088     -0.574 
O2       O      0.42722      0.13308      0.24336     -0.574 
O2       O      0.92722      0.63308      0.24336     -0.574 
O2       O      0.92722      0.13308      0.74336     -0.574 
O2       O      0.42722      0.63308      0.74336     -0.574 
O3       O      0.40475      0.12353      0.25338     -0.438 
O3       O      0.90475      0.62353      0.25338     -0.438 
O3       O      0.90475      0.12353      0.75338     -0.438 
O3       O      0.40475      0.62353      0.75338     -0.438 
C3       C      0.93066      0.3705       0.35929     -0.058 
C3       C      0.43066      0.8705       0.35929     -0.058 
C3       C      0.43066      0.3705       0.85929     -0.058 
C3       C      0.93066      0.8705       0.85929     -0.058 
C3       C      0.75507      0.41837      0.438       -0.058 
C3       C      0.25507      0.91837      0.438       -0.058 
C3       C      0.25507      0.41837      0.938       -0.058 
C3       C      0.75507      0.91837      0.938       -0.058 
C3       C      0.77052      0.41494      0.434701    -0.058 
C3       C      0.27052      0.91494      0.434701    -0.058 
C3       C      0.27052      0.41494      0.934699    -0.058 
C3       C      0.77052      0.91494      0.934699    -0.058 
C3       C      0.79691      0.0137697    0.00252056  -0.058 
C3       C      0.29691      0.51377      0.00252056  -0.058 
C3       C      0.29691      0.0137697    0.502519    -0.058 
C3       C      0.79691      0.51377      0.502519    -0.058 
C1       C      0.30736      0.0240005    0.47967      0.496 
C1       C      0.80736      0.523999     0.47967      0.496 
C1       C      0.80736      0.0240005    0.97967      0.496 
C1       C      0.30736      0.523999     0.97967      0.496 
C2       C      0.30736      0.0124498    0.4906      -0.07  
C2       C      0.80736      0.51245      0.4906      -0.07  
C2       C      0.80736      0.0124498    0.9906      -0.07  
C2       C      0.30736      0.51245      0.9906      -0.07  
C3       C      0.32141      0.00493986   0.493679    -0.058 
C3       C      0.82141      0.50494      0.493679    -0.058 
C3       C      0.82141      0.00493986   0.993679    -0.058 
C3       C      0.32141      0.50494      0.993679    -0.058 
C3       C      0.45923      0.17816      0.30231     -0.058 
C3       C      0.95923      0.67816      0.30231     -0.058 
C3       C      0.95923      0.17816      0.80231     -0.058 
C3       C      0.45923      0.67816      0.80231     -0.058 
C1       C      0.48456      0.16978      0.3113       0.496 
C1       C      0.984559     0.66978      0.3113       0.496 
C1       C      0.984559     0.16978      0.8113       0.496 
C1       C      0.48456      0.66978      0.8113       0.496 
C2       C      0.47259      0.16889      0.30018     -0.07  
C2       C      0.97259      0.66889      0.30018     -0.07  
C2       C      0.97259      0.16889      0.80018     -0.07  
C2       C      0.47259      0.66889      0.80018     -0.07  
C3       C      0.47197      0.1571       0.28933     -0.058 
C3       C      0.97197      0.6571       0.28933     -0.058 
C3       C      0.97197      0.1571       0.78933     -0.058 
C3       C      0.47197      0.6571       0.78933     -0.058 
C3       C      0.39347      0.157959     0.30816     -0.058 
C3       C      0.89347      0.657959     0.30816     -0.058 
C3       C      0.89347      0.157959     0.80816     -0.058 
C3       C      0.39347      0.657959     0.80816     -0.058 
C1       C      0.38844      0.15329      0.28092      0.496 
C1       C      0.88844      0.65329      0.28092      0.496 
C1       C      0.88844      0.15329      0.78092      0.496 
C1       C      0.38844      0.65329      0.78092      0.496 
C2       C      0.38504      0.15109      0.29596     -0.07  
C2       C      0.88504      0.65109      0.29596     -0.07  
C2       C      0.88504      0.15109      0.79596     -0.07  
C2       C      0.38504      0.65109      0.79596     -0.07  
C3       C      0.38883      0.15528      0.3231      -0.058 
C3       C      0.88883      0.65528      0.3231      -0.058 
C3       C      0.88883      0.15528      0.8231      -0.058 
C3       C      0.38883      0.65528      0.8231      -0.058 
C1       C      0.37309      0.1397       0.34071      0.496 
C1       C      0.87309      0.6397       0.34071      0.496 
C1       C      0.87309      0.1397       0.840709     0.496 
C1       C      0.37309      0.6397       0.840709     0.496 
C2       C      0.3795       0.142309     0.32589     -0.07  
C2       C      0.8795       0.642309     0.32589     -0.07  
C2       C      0.8795       0.142309     0.82589     -0.07  
C2       C      0.3795       0.642309     0.82589     -0.07  
C3       C      0.37746      0.13776      0.298361    -0.058 
C3       C      0.87746      0.63776      0.298361    -0.058 
C3       C      0.87746      0.13776      0.798359    -0.058 
C3       C      0.37746      0.63776      0.798359    -0.058 
C3       C      0.37311      0.13418      0.3135      -0.058 
C3       C      0.87311      0.63418      0.3135      -0.058 
C3       C      0.87311      0.13418      0.8135      -0.058 
C3       C      0.37311      0.63418      0.8135      -0.058 
C3       C      0.40471      0.0704903    0.32678     -0.058 
C3       C      0.90471      0.57049      0.32678     -0.058 
C3       C      0.90471      0.0704903    0.82678     -0.058 
C3       C      0.40471      0.57049      0.82678     -0.058 
C3       C      0.39645      0.0819903    0.33485     -0.058 
C3       C      0.89645      0.58199      0.33485     -0.058 
C3       C      0.89645      0.0819903    0.83485     -0.058 
C3       C      0.39645      0.58199      0.83485     -0.058 
C3       C      0.44571      0.0929402    0.26355     -0.058 
C3       C      0.94571      0.59294      0.26355     -0.058 
C3       C      0.94571      0.0929402    0.76355     -0.058 
C3       C      0.44571      0.59294      0.76355     -0.058 
C1       C      0.44016      0.0687       0.27464      0.496 
C1       C      0.94016      0.5687       0.27464      0.496 
C1       C      0.94016      0.0687       0.77464      0.496 
C1       C      0.44016      0.5687       0.77464      0.496 
C2       C      0.43518      0.0821096    0.26807     -0.07  
C2       C      0.93518      0.58211      0.26807     -0.07  
C2       C      0.93518      0.0821096    0.76807     -0.07  
C2       C      0.43518      0.58211      0.76807     -0.07  
C3       C      0.44076      0.10578      0.25617     -0.058 
C3       C      0.94076      0.60578      0.25617     -0.058 
C3       C      0.94076      0.10578      0.75617     -0.058 
C3       C      0.44076      0.60578      0.75617     -0.058 
C1       C      0.41918      0.12253      0.25095      0.496 
C1       C      0.91918      0.62253      0.25095      0.496 
C1       C      0.91918      0.12253      0.75095      0.496 
C1       C      0.41918      0.62253      0.75095      0.496 
C2       C      0.42522      0.10825      0.25489     -0.07  
C2       C      0.92522      0.60825      0.25489     -0.07  
C2       C      0.92522      0.10825      0.75489     -0.07  
C2       C      0.42522      0.60825      0.75489     -0.07  
C3       C      0.41968      0.0851602    0.26846     -0.058 
C3       C      0.91968      0.58516      0.26846     -0.058 
C3       C      0.91968      0.0851602    0.76846     -0.058 
C3       C      0.41968      0.58516      0.76846     -0.058 
C3       C      0.41458      0.0984201    0.26171     -0.058 
C3       C      0.91458      0.59842      0.26171     -0.058 
C3       C      0.91458      0.0984201    0.76171     -0.058 
C3       C      0.41458      0.59842      0.76171     -0.058 
H1       H      0.749672     0.413299     0.447495     0.108 
H1       H      0.249672     0.913299     0.447495     0.108 
H1       H      0.249672     0.413299     0.947495     0.108 
H1       H      0.749672     0.913299     0.947495     0.108 
H1       H      0.776373     0.406686     0.44121      0.108 
H1       H      0.276373     0.906686     0.44121      0.108 
H1       H      0.276373     0.406686     0.94121      0.108 
H1       H      0.776373     0.906686     0.94121      0.108 
H1       H      0.401732     0.0677829    0.315441     0.108 
H1       H      0.901732     0.567783     0.315441     0.108 
H1       H      0.901732     0.0677829    0.815441     0.108 
H1       H      0.401732     0.567783     0.815441     0.108 
H1       H      0.385871     0.0858747    0.330635     0.108 
H1       H      0.885871     0.585875     0.330635     0.108 
H1       H      0.885871     0.0858747    0.830635     0.108 
H1       H      0.385871     0.585875     0.830635     0.108 
H1       H      0.928901     0.368168     0.347624     0.108 
H1       H      0.428901     0.868168     0.347624     0.108 
H1       H      0.428901     0.368168     0.847624     0.108 
H1       H      0.928901     0.868168     0.847624     0.108 
H1       H      0.789301     0.0230845    0.00284576   0.108 
H1       H      0.289301     0.523085     0.00284576   0.108 
H1       H      0.289301     0.0230845    0.502846     0.108 
H1       H      0.789301     0.523085     0.502846     0.108 
H1       H      0.412162     0.0774398    0.273812     0.108 
H1       H      0.912162     0.57744      0.273812     0.108 
H1       H      0.912162     0.0774398    0.773812     0.108 
H1       H      0.412162     0.57744      0.773812     0.108 
H1       H      0.402826     0.10105      0.261723     0.108 
H1       H      0.902826     0.60105      0.261723     0.108 
H1       H      0.902826     0.10105      0.761723     0.108 
H1       H      0.402826     0.60105      0.761723     0.108 
H1       H      0.457414     0.091259     0.265798     0.108 
H1       H      0.957414     0.591259     0.265798     0.108 
H1       H      0.957414     0.091259     0.765797     0.108 
H1       H      0.457414     0.591259     0.765797     0.108 
H1       H      0.448741     0.113551     0.251598     0.108 
H1       H      0.948741     0.613551     0.251598     0.108 
H1       H      0.948741     0.113551     0.751598     0.108 
H1       H      0.448741     0.613551     0.751598     0.108 
H1       H      0.458053     0.18482      0.312261     0.108 
H1       H      0.958053     0.684819     0.312261     0.108 
H1       H      0.958053     0.18482      0.812261     0.108 
H1       H      0.458053     0.684819     0.812261     0.108 
H1       H      0.480043     0.148184     0.289666     0.108 
H1       H      0.980043     0.648184     0.289666     0.108 
H1       H      0.980043     0.148184     0.789666     0.108 
H1       H      0.480043     0.648184     0.789666     0.108 
H1       H      0.375009     0.130481     0.289099     0.108 
H1       H      0.875009     0.630481     0.289099     0.108 
H1       H      0.875009     0.130481     0.789099     0.108 
H1       H      0.375009     0.630481     0.789099     0.108 
H1       H      0.365095     0.12544      0.315533     0.108 
H1       H      0.865095     0.62544      0.315533     0.108 
H1       H      0.865095     0.12544      0.815533     0.108 
H1       H      0.365095     0.62544      0.815533     0.108 
H1       H      0.403        0.164901     0.305729     0.108 
H1       H      0.903        0.664901     0.305729     0.108 
H1       H      0.903        0.164901     0.805729     0.108 
H1       H      0.403        0.664901     0.805729     0.108 
H1       H      0.392241     0.162753     0.331891     0.108 
H1       H      0.892241     0.662753     0.331891     0.108 
H1       H      0.892241     0.162753     0.831891     0.108 
H1       H      0.392241     0.662753     0.831891     0.108 
H1       H      0.331316     0.00795328   0.487543     0.108 
H1       H      0.831316     0.507953     0.487543     0.108 
H1       H      0.831316     0.00795328   0.987543     0.108 
H1       H      0.331316     0.507953     0.987543     0.108 
Cr1      Cr     0.237089     0.15527      0.42799      1.619 
Cr1      Cr     0.737089     0.65527      0.42799      1.619 
Cr1      Cr     0.737089     0.15527      0.92799      1.619 
Cr1      Cr     0.237089     0.65527      0.92799      1.619 
Cr1      Cr     0.0415398    0.4272       0.29246      1.619 
Cr1      Cr     0.54154      0.9272       0.29246      1.619 
Cr1      Cr     0.54154      0.4272       0.79246      1.619 
Cr1      Cr     0.0415398    0.9272       0.79246      1.619 
O3       O      0.81964      0.39131      0.40982     -0.438 
O3       O      0.31964      0.89131      0.40982     -0.438 
O3       O      0.31964      0.39131      0.90982     -0.438 
O3       O      0.81964      0.89131      0.90982     -0.438 
O2       O      0.0235403    0.4261       0.30587     -0.574 
O2       O      0.52354      0.9261       0.30587     -0.574 
O2       O      0.52354      0.4261       0.80587     -0.574 
O2       O      0.0235403    0.9261       0.80587     -0.574 
O2       O      0.9493       0.41114      0.32263     -0.574 
O2       O      0.4493       0.91114      0.32263     -0.574 
O2       O      0.4493       0.41114      0.82263     -0.574 
O2       O      0.9493       0.91114      0.82263     -0.574 
O2       O      0.42932      0.0287794    0.27416     -0.574 
O2       O      0.92932      0.528779     0.27416     -0.574 
O2       O      0.92932      0.0287794    0.77416     -0.574 
O2       O      0.42932      0.528779     0.77416     -0.574 
O3       O      0.454771     0.0323701    0.27195     -0.438 
O3       O      0.954769     0.53237      0.27195     -0.438 
O3       O      0.954769     0.0323701    0.77195     -0.438 
O3       O      0.454771     0.53237      0.77195     -0.438 
O2       O      0.26956      0.172989     0.42561     -0.574 
O2       O      0.76956      0.672989     0.42561     -0.574 
O2       O      0.76956      0.172989     0.92561     -0.574 
O2       O      0.26956      0.672989     0.92561     -0.574 
O2       O      0.25308      0.16224      0.44003     -0.574 
O2       O      0.75308      0.66224      0.44003     -0.574 
O2       O      0.75308      0.16224      0.94003     -0.574 
O2       O      0.25308      0.66224      0.94003     -0.574 
O2       O      0.351239     0.16242      0.47279     -0.574 
O2       O      0.851239     0.66242      0.47279     -0.574 
O2       O      0.851239     0.16242      0.97279     -0.574 
O2       O      0.351239     0.66242      0.97279     -0.574 
O3       O      0.36549      0.14226      0.47747     -0.438 
O3       O      0.86549      0.64226      0.47747     -0.438 
O3       O      0.86549      0.14226      0.97747     -0.438 
O3       O      0.36549      0.64226      0.97747     -0.438 
O3       O      0.37448      0.14875      0.39811     -0.438 
O3       O      0.87448      0.64875      0.39811     -0.438 
O3       O      0.87448      0.14875      0.89811     -0.438 
O3       O      0.37448      0.64875      0.89811     -0.438 
O2       O      0.383689     0.12708      0.40693     -0.574 
O2       O      0.883689     0.62708      0.40693     -0.574 
O2       O      0.883689     0.12708      0.90693     -0.574 
O2       O      0.383689     0.62708      0.90693     -0.574 
O2       O      0.32805      0.0563796    0.440889    -0.574 
O2       O      0.82805      0.55638      0.440889    -0.574 
O2       O      0.82805      0.0563796    0.940889    -0.574 
O2       O      0.32805      0.55638      0.940889    -0.574 
O2       O      0.37056      0.10161      0.39622     -0.574 
O2       O      0.87056      0.60161      0.39622     -0.574 
O2       O      0.87056      0.10161      0.89622     -0.574 
O2       O      0.37056      0.60161      0.89622     -0.574 
O3       O      0.29621      0.0647695    0.47624     -0.438 
O3       O      0.79621      0.564769     0.47624     -0.438 
O3       O      0.79621      0.0647695    0.97624     -0.438 
O3       O      0.29621      0.564769     0.97624     -0.438 
O2       O      0.31945      0.0607298    0.46912     -0.574 
O2       O      0.81945      0.56073      0.46912     -0.574 
O2       O      0.81945      0.0607298    0.96912     -0.574 
O2       O      0.31945      0.56073      0.96912     -0.574 
O2       O      0.82278      0.13308      0.00664011  -0.574 
O2       O      0.32278      0.63308      0.00664011  -0.574 
O2       O      0.32278      0.13308      0.50664     -0.574 
O2       O      0.82278      0.63308      0.50664     -0.574 
O3       O      0.34525      0.12353      0.49662     -0.438 
O3       O      0.84525      0.62353      0.49662     -0.438 
O3       O      0.84525      0.12353      0.99662     -0.438 
O3       O      0.34525      0.62353      0.99662     -0.438 
C3       C      0.81934      0.3705       0.39071     -0.058 
C3       C      0.31934      0.8705       0.39071     -0.058 
C3       C      0.31934      0.3705       0.89071     -0.058 
C3       C      0.81934      0.8705       0.89071     -0.058 
C3       C      0.99493      0.41837      0.312       -0.058 
C3       C      0.49493      0.91837      0.312       -0.058 
C3       C      0.49493      0.41837      0.812       -0.058 
C3       C      0.99493      0.91837      0.812       -0.058 
C3       C      0.97948      0.41494      0.3153      -0.058 
C3       C      0.47948      0.91494      0.3153      -0.058 
C3       C      0.47948      0.41494      0.8153      -0.058 
C3       C      0.97948      0.91494      0.8153      -0.058 
C3       C      0.453091     0.0137697    0.24748     -0.058 
C3       C      0.953089     0.51377      0.24748     -0.058 
C3       C      0.953089     0.0137697    0.74748     -0.058 
C3       C      0.453091     0.51377      0.74748     -0.058 
C1       C      0.44264      0.0240005    0.27033      0.496 
C1       C      0.94264      0.523999     0.27033      0.496 
C1       C      0.94264      0.0240005    0.770329     0.496 
C1       C      0.44264      0.523999     0.770329     0.496 
C2       C      0.44264      0.0124498    0.2594      -0.07  
C2       C      0.94264      0.51245      0.2594      -0.07  
C2       C      0.94264      0.0124498    0.7594      -0.07  
C2       C      0.44264      0.51245      0.7594      -0.07  
C3       C      0.42859      0.00493986   0.25632     -0.058 
C3       C      0.92859      0.50494      0.25632     -0.058 
C3       C      0.92859      0.00493986   0.75632     -0.058 
C3       C      0.42859      0.50494      0.75632     -0.058 
C3       C      0.29077      0.17816      0.44769     -0.058 
C3       C      0.79077      0.67816      0.44769     -0.058 
C3       C      0.79077      0.17816      0.94769     -0.058 
C3       C      0.29077      0.67816      0.94769     -0.058 
C1       C      0.26544      0.16978      0.4387       0.496 
C1       C      0.76544      0.66978      0.4387       0.496 
C1       C      0.76544      0.16978      0.9387       0.496 
C1       C      0.26544      0.66978      0.9387       0.496 
C2       C      0.277409     0.16889      0.449819    -0.07  
C2       C      0.777409     0.66889      0.449819    -0.07  
C2       C      0.777409     0.16889      0.949819    -0.07  
C2       C      0.277409     0.66889      0.949819    -0.07  
C3       C      0.278029     0.1571       0.46067     -0.058 
C3       C      0.778029     0.6571       0.46067     -0.058 
C3       C      0.778029     0.1571       0.96067     -0.058 
C3       C      0.278029     0.6571       0.96067     -0.058 
C3       C      0.35653      0.157959     0.44184     -0.058 
C3       C      0.85653      0.657959     0.44184     -0.058 
C3       C      0.85653      0.157959     0.94184     -0.058 
C3       C      0.35653      0.657959     0.94184     -0.058 
C1       C      0.36156      0.15329      0.46908      0.496 
C1       C      0.86156      0.65329      0.46908      0.496 
C1       C      0.86156      0.15329      0.96908      0.496 
C1       C      0.36156      0.65329      0.96908      0.496 
C2       C      0.36496      0.15109      0.45404     -0.07  
C2       C      0.86496      0.65109      0.45404     -0.07  
C2       C      0.86496      0.15109      0.95404     -0.07  
C2       C      0.36496      0.65109      0.95404     -0.07  
C3       C      0.36117      0.15528      0.4269      -0.058 
C3       C      0.86117      0.65528      0.4269      -0.058 
C3       C      0.86117      0.15528      0.9269      -0.058 
C3       C      0.36117      0.65528      0.9269      -0.058 
C1       C      0.37691      0.1397       0.40929      0.496 
C1       C      0.87691      0.6397       0.40929      0.496 
C1       C      0.87691      0.1397       0.90929      0.496 
C1       C      0.37691      0.6397       0.90929      0.496 
C2       C      0.3705       0.142309     0.42411     -0.07  
C2       C      0.8705       0.642309     0.42411     -0.07  
C2       C      0.8705       0.142309     0.92411     -0.07  
C2       C      0.3705       0.642309     0.92411     -0.07  
C3       C      0.37254      0.13776      0.45164     -0.058 
C3       C      0.872539     0.63776      0.45164     -0.058 
C3       C      0.872539     0.13776      0.95164     -0.058 
C3       C      0.37254      0.63776      0.95164     -0.058 
C3       C      0.37689      0.13418      0.4365      -0.058 
C3       C      0.87689      0.63418      0.4365      -0.058 
C3       C      0.87689      0.13418      0.9365      -0.058 
C3       C      0.37689      0.63418      0.9365      -0.058 
C3       C      0.34529      0.0704903    0.42322     -0.058 
C3       C      0.84529      0.57049      0.42322     -0.058 
C3       C      0.84529      0.0704903    0.92322     -0.058 
C3       C      0.34529      0.57049      0.92322     -0.058 
C3       C      0.35355      0.0819903    0.41515     -0.058 
C3       C      0.85355      0.58199      0.41515     -0.058 
C3       C      0.85355      0.0819903    0.91515     -0.058 
C3       C      0.35355      0.58199      0.91515     -0.058 
C3       C      0.304289     0.0929402    0.48645     -0.058 
C3       C      0.804289     0.59294      0.48645     -0.058 
C3       C      0.804289     0.0929402    0.98645     -0.058 
C3       C      0.304289     0.59294      0.98645     -0.058 
C1       C      0.30984      0.0687       0.47536      0.496 
C1       C      0.80984      0.5687       0.47536      0.496 
C1       C      0.80984      0.0687       0.97536      0.496 
C1       C      0.30984      0.5687       0.97536      0.496 
C2       C      0.31482      0.0821096    0.48193     -0.07  
C2       C      0.81482      0.58211      0.48193     -0.07  
C2       C      0.81482      0.0821096    0.98193     -0.07  
C2       C      0.31482      0.58211      0.98193     -0.07  
C3       C      0.309239     0.10578      0.49383     -0.058 
C3       C      0.809239     0.60578      0.49383     -0.058 
C3       C      0.809239     0.10578      0.99383     -0.058 
C3       C      0.309239     0.60578      0.99383     -0.058 
C1       C      0.33082      0.12253      0.49905      0.496 
C1       C      0.83082      0.62253      0.49905      0.496 
C1       C      0.83082      0.12253      0.99905      0.496 
C1       C      0.33082      0.62253      0.99905      0.496 
C2       C      0.32478      0.10825      0.49511     -0.07  
C2       C      0.82478      0.60825      0.49511     -0.07  
C2       C      0.82478      0.10825      0.99511     -0.07  
C2       C      0.32478      0.60825      0.99511     -0.07  
C3       C      0.33032      0.0851602    0.48154     -0.058 
C3       C      0.83032      0.58516      0.48154     -0.058 
C3       C      0.83032      0.0851602    0.98154     -0.058 
C3       C      0.33032      0.58516      0.98154     -0.058 
C3       C      0.33542      0.0984201    0.48829     -0.058 
C3       C      0.83542      0.59842      0.48829     -0.058 
C3       C      0.83542      0.0984201    0.98829     -0.058 
C3       C      0.33542      0.59842      0.98829     -0.058 
H1       H      0.000327448  0.413299     0.302505     0.108 
H1       H      0.500327     0.913299     0.302505     0.108 
H1       H      0.500327     0.413299     0.802505     0.108 
H1       H      0.000327448  0.913299     0.802505     0.108 
H1       H      0.973626     0.406686     0.308789     0.108 
H1       H      0.473626     0.906686     0.308789     0.108 
H1       H      0.473626     0.406686     0.808789     0.108 
H1       H      0.973626     0.906686     0.808789     0.108 
H1       H      0.348268     0.0677829    0.434559     0.108 
H1       H      0.848268     0.567783     0.434559     0.108 
H1       H      0.848268     0.0677829    0.934559     0.108 
H1       H      0.348268     0.567783     0.934559     0.108 
H1       H      0.364128     0.0858747    0.419364     0.108 
H1       H      0.864128     0.585875     0.419364     0.108 
H1       H      0.864128     0.0858747    0.919364     0.108 
H1       H      0.364128     0.585875     0.919364     0.108 
H1       H      0.8211       0.368168     0.402375     0.108 
H1       H      0.3211       0.868168     0.402375     0.108 
H1       H      0.3211       0.368168     0.902375     0.108 
H1       H      0.8211       0.868168     0.902375     0.108 
H1       H      0.460699     0.0230845    0.247154     0.108 
H1       H      0.960699     0.523085     0.247154     0.108 
H1       H      0.960699     0.0230845    0.747154     0.108 
H1       H      0.460699     0.523085     0.747154     0.108 
H1       H      0.337838     0.0774398    0.476187     0.108 
H1       H      0.837838     0.57744      0.476187     0.108 
H1       H      0.837838     0.0774398    0.976187     0.108 
H1       H      0.337838     0.57744      0.976187     0.108 
H1       H      0.347174     0.10105      0.488276     0.108 
H1       H      0.847174     0.60105      0.488276     0.108 
H1       H      0.847174     0.10105      0.988276     0.108 
H1       H      0.347174     0.60105      0.988276     0.108 
H1       H      0.292587     0.091259     0.484203     0.108 
H1       H      0.792587     0.591259     0.484203     0.108 
H1       H      0.792587     0.091259     0.984203     0.108 
H1       H      0.292587     0.591259     0.984203     0.108 
H1       H      0.301258     0.113551     0.498402     0.108 
H1       H      0.801258     0.613551     0.498402     0.108 
H1       H      0.801258     0.113551     0.998402     0.108 
H1       H      0.301258     0.613551     0.998402     0.108 
H1       H      0.291948     0.18482      0.437739     0.108 
H1       H      0.791948     0.684819     0.437739     0.108 
H1       H      0.791948     0.18482      0.937739     0.108 
H1       H      0.291948     0.684819     0.937739     0.108 
H1       H      0.269958     0.148184     0.460334     0.108 
H1       H      0.769958     0.648184     0.460334     0.108 
H1       H      0.769958     0.148184     0.960334     0.108 
H1       H      0.269958     0.648184     0.960334     0.108 
H1       H      0.374991     0.130481     0.460902     0.108 
H1       H      0.874991     0.630481     0.460902     0.108 
H1       H      0.874991     0.130481     0.960902     0.108 
H1       H      0.374991     0.630481     0.960902     0.108 
H1       H      0.384905     0.12544      0.434466     0.108 
H1       H      0.884905     0.62544      0.434466     0.108 
H1       H      0.884905     0.12544      0.934466     0.108 
H1       H      0.384905     0.62544      0.934466     0.108 
H1       H      0.347        0.164901     0.444271     0.108 
H1       H      0.847        0.664901     0.444271     0.108 
H1       H      0.847        0.164901     0.944271     0.108 
H1       H      0.347        0.664901     0.944271     0.108 
H1       H      0.357758     0.162753     0.418109     0.108 
H1       H      0.857758     0.662753     0.418109     0.108 
H1       H      0.857758     0.162753     0.918109     0.108 
H1       H      0.357758     0.662753     0.918109     0.108 
H1       H      0.418685     0.00795328   0.262456     0.108 
H1       H      0.918685     0.507953     0.262456     0.108 
H1       H      0.918685     0.00795328   0.762456     0.108 
H1       H      0.418685     0.507953     0.762456     0.108 
Cr2      Cr     0.737089     0.0947304    0.32201      1.35  
Cr2      Cr     0.237089     0.59473      0.32201      1.35  
Cr2      Cr     0.237089     0.0947304    0.82201      1.35  
Cr2      Cr     0.737089     0.59473      0.82201      1.35  
Cr2      Cr     0.0415398    0.3228       0.45754      1.35  
Cr2      Cr     0.54154      0.8228       0.45754      1.35  
Cr2      Cr     0.54154      0.3228       0.95754      1.35  
Cr2      Cr     0.0415398    0.8228       0.95754      1.35  
O2       O      0.81964      0.35869      0.34018     -0.574 
O2       O      0.31964      0.85869      0.34018     -0.574 
O2       O      0.31964      0.35869      0.840179    -0.574 
O2       O      0.81964      0.85869      0.840179    -0.574 
O3       O      0.0235403    0.3239       0.44413     -0.438 
O3       O      0.52354      0.8239       0.44413     -0.438 
O3       O      0.52354      0.3239       0.94413     -0.438 
O3       O      0.0235403    0.8239       0.94413     -0.438 
O2       O      0.9493       0.338859     0.427369    -0.574 
O2       O      0.4493       0.838859     0.427369    -0.574 
O2       O      0.4493       0.338859     0.927369    -0.574 
O2       O      0.9493       0.838859     0.927369    -0.574 
O2       O      0.92932      0.22122      0.47584     -0.574 
O2       O      0.42932      0.72122      0.47584     -0.574 
O2       O      0.42932      0.22122      0.97584     -0.574 
O2       O      0.92932      0.72122      0.97584     -0.574 
O2       O      0.954769     0.21763      0.47805     -0.574 
O2       O      0.454771     0.71763      0.47805     -0.574 
O2       O      0.454771     0.21763      0.97805     -0.574 
O2       O      0.954769     0.71763      0.97805     -0.574 
O2       O      0.76956      0.07701      0.32439     -0.574 
O2       O      0.26956      0.57701      0.32439     -0.574 
O2       O      0.26956      0.07701      0.82439     -0.574 
O2       O      0.76956      0.57701      0.82439     -0.574 
O3       O      0.75308      0.0877595    0.30997     -0.438 
O3       O      0.25308      0.58776      0.30997     -0.438 
O3       O      0.25308      0.0877595    0.80997     -0.438 
O3       O      0.75308      0.58776      0.80997     -0.438 
O2       O      0.851239     0.0875795    0.27721     -0.574 
O2       O      0.351239     0.587579     0.27721     -0.574 
O2       O      0.351239     0.0875795    0.77721     -0.574 
O2       O      0.851239     0.587579     0.77721     -0.574 
O3       O      0.86549      0.107739     0.27253     -0.438 
O3       O      0.36549      0.607739     0.27253     -0.438 
O3       O      0.36549      0.107739     0.77253     -0.438 
O3       O      0.86549      0.607739     0.77253     -0.438 
O2       O      0.87448      0.10125      0.35189     -0.574 
O2       O      0.37448      0.60125      0.35189     -0.574 
O2       O      0.37448      0.10125      0.85189     -0.574 
O2       O      0.87448      0.60125      0.85189     -0.574 
O2       O      0.883689     0.12292      0.34307     -0.574 
O2       O      0.383689     0.62292      0.34307     -0.574 
O2       O      0.383689     0.12292      0.84307     -0.574 
O2       O      0.883689     0.62292      0.84307     -0.574 
O2       O      0.82805      0.19362      0.30911     -0.574 
O2       O      0.32805      0.69362      0.30911     -0.574 
O2       O      0.32805      0.19362      0.80911     -0.574 
O2       O      0.82805      0.69362      0.80911     -0.574 
O2       O      0.87056      0.14839      0.35378     -0.574 
O2       O      0.37056      0.64839      0.35378     -0.574 
O2       O      0.37056      0.14839      0.85378     -0.574 
O2       O      0.87056      0.64839      0.85378     -0.574 
O2       O      0.79621      0.18523      0.27376     -0.574 
O2       O      0.29621      0.68523      0.27376     -0.574 
O2       O      0.29621      0.18523      0.77376     -0.574 
O2       O      0.79621      0.68523      0.77376     -0.574 
O2       O      0.81945      0.18927      0.28088     -0.574 
O2       O      0.31945      0.68927      0.28088     -0.574 
O2       O      0.31945      0.18927      0.78088     -0.574 
O2       O      0.81945      0.68927      0.78088     -0.574 
O2       O      0.82278      0.11692      0.24336     -0.574 
O2       O      0.32278      0.61692      0.24336     -0.574 
O2       O      0.32278      0.11692      0.74336     -0.574 
O2       O      0.82278      0.61692      0.74336     -0.574 
O3       O      0.84525      0.12647      0.25338     -0.438 
O3       O      0.34525      0.62647      0.25338     -0.438 
O3       O      0.34525      0.12647      0.75338     -0.438 
O3       O      0.84525      0.62647      0.75338     -0.438 
F1       F      0.0391295    0.34415      0.46127     -0.547 
F1       F      0.53913      0.84415      0.46127     -0.547 
F1       F      0.53913      0.34415      0.96127     -0.547 
F1       F      0.0391295    0.84415      0.96127     -0.547 
F1       F      0.72474      0.0942005    0.3025      -0.547 
F1       F      0.22474      0.5942       0.3025      -0.547 
F1       F      0.22474      0.0942005    0.8025      -0.547 
F1       F      0.72474      0.5942       0.8025      -0.547 
C3       C      0.81934      0.3795       0.35929     -0.058 
C3       C      0.31934      0.8795       0.35929     -0.058 
C3       C      0.31934      0.3795       0.85929     -0.058 
C3       C      0.81934      0.8795       0.85929     -0.058 
C3       C      0.99493      0.33163      0.438       -0.058 
C3       C      0.49493      0.83163      0.438       -0.058 
C3       C      0.49493      0.33163      0.938       -0.058 
C3       C      0.99493      0.83163      0.938       -0.058 
C3       C      0.97948      0.335059     0.434701    -0.058 
C3       C      0.47948      0.835059     0.434701    -0.058 
C3       C      0.47948      0.335059     0.934699    -0.058 
C3       C      0.97948      0.835059     0.934699    -0.058 
C3       C      0.453091     0.23623      0.00252056  -0.058 
C3       C      0.953089     0.73623      0.00252056  -0.058 
C3       C      0.953089     0.23623      0.502519    -0.058 
C3       C      0.453091     0.73623      0.502519    -0.058 
C1       C      0.94264      0.226        0.47967      0.496 
C1       C      0.44264      0.726        0.47967      0.496 
C1       C      0.44264      0.226        0.97967      0.496 
C1       C      0.94264      0.726        0.97967      0.496 
C2       C      0.94264      0.23755      0.4906      -0.07  
C2       C      0.44264      0.73755      0.4906      -0.07  
C2       C      0.44264      0.23755      0.9906      -0.07  
C2       C      0.94264      0.73755      0.9906      -0.07  
C3       C      0.92859      0.24506      0.493679    -0.058 
C3       C      0.42859      0.74506      0.493679    -0.058 
C3       C      0.42859      0.24506      0.993679    -0.058 
C3       C      0.92859      0.74506      0.993679    -0.058 
C3       C      0.79077      0.0718394    0.30231     -0.058 
C3       C      0.29077      0.571839     0.30231     -0.058 
C3       C      0.29077      0.0718394    0.80231     -0.058 
C3       C      0.79077      0.571839     0.80231     -0.058 
C1       C      0.76544      0.0802203    0.3113       0.496 
C1       C      0.26544      0.58022      0.3113       0.496 
C1       C      0.26544      0.0802203    0.8113       0.496 
C1       C      0.76544      0.58022      0.8113       0.496 
C2       C      0.777409     0.0811104    0.30018     -0.07  
C2       C      0.277409     0.58111      0.30018     -0.07  
C2       C      0.277409     0.0811104    0.80018     -0.07  
C2       C      0.777409     0.58111      0.80018     -0.07  
C3       C      0.778029     0.0928997    0.28933     -0.058 
C3       C      0.278029     0.5929       0.28933     -0.058 
C3       C      0.278029     0.0928997    0.78933     -0.058 
C3       C      0.778029     0.5929       0.78933     -0.058 
C3       C      0.85653      0.09204      0.30816     -0.058 
C3       C      0.35653      0.59204      0.30816     -0.058 
C3       C      0.35653      0.09204      0.80816     -0.058 
C3       C      0.85653      0.59204      0.80816     -0.058 
C1       C      0.86156      0.0967098    0.28092      0.496 
C1       C      0.36156      0.59671      0.28092      0.496 
C1       C      0.36156      0.0967098    0.78092      0.496 
C1       C      0.86156      0.59671      0.78092      0.496 
C2       C      0.86496      0.0989096    0.29596     -0.07  
C2       C      0.36496      0.59891      0.29596     -0.07  
C2       C      0.36496      0.0989096    0.79596     -0.07  
C2       C      0.86496      0.59891      0.79596     -0.07  
C3       C      0.86117      0.0947203    0.3231      -0.058 
C3       C      0.36117      0.59472      0.3231      -0.058 
C3       C      0.36117      0.0947203    0.8231      -0.058 
C3       C      0.86117      0.59472      0.8231      -0.058 
C1       C      0.87691      0.110299     0.34071      0.496 
C1       C      0.37691      0.610299     0.34071      0.496 
C1       C      0.37691      0.110299     0.840709     0.496 
C1       C      0.87691      0.610299     0.840709     0.496 
C2       C      0.8705       0.10769      0.32589     -0.07  
C2       C      0.3705       0.60769      0.32589     -0.07  
C2       C      0.3705       0.10769      0.82589     -0.07  
C2       C      0.8705       0.60769      0.82589     -0.07  
C3       C      0.872539     0.11224      0.298361    -0.058 
C3       C      0.37254      0.612239     0.298361    -0.058 
C3       C      0.37254      0.11224      0.798359    -0.058 
C3       C      0.872539     0.612239     0.798359    -0.058 
C3       C      0.87689      0.11582      0.3135      -0.058 
C3       C      0.37689      0.61582      0.3135      -0.058 
C3       C      0.37689      0.11582      0.8135      -0.058 
C3       C      0.87689      0.61582      0.8135      -0.058 
C3       C      0.84529      0.17951      0.32678     -0.058 
C3       C      0.34529      0.67951      0.32678     -0.058 
C3       C      0.34529      0.17951      0.82678     -0.058 
C3       C      0.84529      0.67951      0.82678     -0.058 
C3       C      0.85355      0.16801      0.33485     -0.058 
C3       C      0.35355      0.66801      0.33485     -0.058 
C3       C      0.35355      0.16801      0.83485     -0.058 
C3       C      0.85355      0.66801      0.83485     -0.058 
C3       C      0.804289     0.15706      0.26355     -0.058 
C3       C      0.304289     0.65706      0.26355     -0.058 
C3       C      0.304289     0.15706      0.76355     -0.058 
C3       C      0.804289     0.65706      0.76355     -0.058 
C1       C      0.80984      0.181299     0.27464      0.496 
C1       C      0.30984      0.681299     0.27464      0.496 
C1       C      0.30984      0.181299     0.77464      0.496 
C1       C      0.80984      0.681299     0.77464      0.496 
C2       C      0.81482      0.16789      0.26807     -0.07  
C2       C      0.31482      0.66789      0.26807     -0.07  
C2       C      0.31482      0.16789      0.76807     -0.07  
C2       C      0.81482      0.66789      0.76807     -0.07  
C3       C      0.809239     0.14422      0.25617     -0.058 
C3       C      0.309239     0.64422      0.25617     -0.058 
C3       C      0.309239     0.14422      0.75617     -0.058 
C3       C      0.809239     0.64422      0.75617     -0.058 
C1       C      0.83082      0.12747      0.25095      0.496 
C1       C      0.33082      0.62747      0.25095      0.496 
C1       C      0.33082      0.12747      0.75095      0.496 
C1       C      0.83082      0.62747      0.75095      0.496 
C2       C      0.82478      0.14175      0.25489     -0.07  
C2       C      0.32478      0.64175      0.25489     -0.07  
C2       C      0.32478      0.14175      0.75489     -0.07  
C2       C      0.82478      0.64175      0.75489     -0.07  
C3       C      0.83032      0.16484      0.26846     -0.058 
C3       C      0.33032      0.66484      0.26846     -0.058 
C3       C      0.33032      0.16484      0.76846     -0.058 
C3       C      0.83032      0.66484      0.76846     -0.058 
C3       C      0.83542      0.15158      0.26171     -0.058 
C3       C      0.33542      0.65158      0.26171     -0.058 
C3       C      0.33542      0.15158      0.76171     -0.058 
C3       C      0.83542      0.65158      0.76171     -0.058 
H1       H      0.000327448  0.3367       0.447495     0.108 
H1       H      0.500327     0.8367       0.447495     0.108 
H1       H      0.500327     0.3367       0.947495     0.108 
H1       H      0.000327448  0.8367       0.947495     0.108 
H1       H      0.973626     0.343313     0.44121      0.108 
H1       H      0.473626     0.843313     0.44121      0.108 
H1       H      0.473626     0.343313     0.94121      0.108 
H1       H      0.973626     0.843313     0.94121      0.108 
H1       H      0.848268     0.182218     0.315441     0.108 
H1       H      0.348268     0.682218     0.315441     0.108 
H1       H      0.348268     0.182218     0.815441     0.108 
H1       H      0.848268     0.682218     0.815441     0.108 
H1       H      0.864128     0.164125     0.330635     0.108 
H1       H      0.364128     0.664125     0.330635     0.108 
H1       H      0.364128     0.164125     0.830635     0.108 
H1       H      0.864128     0.664125     0.830635     0.108 
H1       H      0.8211       0.381832     0.347624     0.108 
H1       H      0.3211       0.881832     0.347624     0.108 
H1       H      0.3211       0.381832     0.847624     0.108 
H1       H      0.8211       0.881832     0.847624     0.108 
H1       H      0.460699     0.226915     0.00284576   0.108 
H1       H      0.960699     0.726915     0.00284576   0.108 
H1       H      0.960699     0.226915     0.502846     0.108 
H1       H      0.460699     0.726915     0.502846     0.108 
H1       H      0.837838     0.172561     0.273812     0.108 
H1       H      0.337838     0.672561     0.273812     0.108 
H1       H      0.337838     0.172561     0.773812     0.108 
H1       H      0.837838     0.672561     0.773812     0.108 
H1       H      0.847174     0.14895      0.261723     0.108 
H1       H      0.347174     0.64895      0.261723     0.108 
H1       H      0.347174     0.14895      0.761723     0.108 
H1       H      0.847174     0.64895      0.761723     0.108 
H1       H      0.792587     0.15874      0.265798     0.108 
H1       H      0.292587     0.65874      0.265798     0.108 
H1       H      0.292587     0.15874      0.765797     0.108 
H1       H      0.792587     0.65874      0.765797     0.108 
H1       H      0.801258     0.136449     0.251598     0.108 
H1       H      0.301258     0.636449     0.251598     0.108 
H1       H      0.301258     0.136449     0.751598     0.108 
H1       H      0.801258     0.636449     0.751598     0.108 
H1       H      0.791948     0.0651802    0.312261     0.108 
H1       H      0.291948     0.56518      0.312261     0.108 
H1       H      0.291948     0.0651802    0.812261     0.108 
H1       H      0.791948     0.56518      0.812261     0.108 
H1       H      0.769958     0.101816     0.289666     0.108 
H1       H      0.269958     0.601816     0.289666     0.108 
H1       H      0.269958     0.101816     0.789666     0.108 
H1       H      0.769958     0.601816     0.789666     0.108 
H1       H      0.874991     0.119519     0.289099     0.108 
H1       H      0.374991     0.619519     0.289099     0.108 
H1       H      0.374991     0.119519     0.789099     0.108 
H1       H      0.874991     0.619519     0.789099     0.108 
H1       H      0.884905     0.124561     0.315533     0.108 
H1       H      0.384905     0.624561     0.315533     0.108 
H1       H      0.384905     0.124561     0.815533     0.108 
H1       H      0.884905     0.624561     0.815533     0.108 
H1       H      0.847        0.0850983    0.305729     0.108 
H1       H      0.347        0.585098     0.305729     0.108 
H1       H      0.347        0.0850983    0.805729     0.108 
H1       H      0.847        0.585098     0.805729     0.108 
H1       H      0.857758     0.0872475    0.331891     0.108 
H1       H      0.357758     0.587248     0.331891     0.108 
H1       H      0.357758     0.0872475    0.831891     0.108 
H1       H      0.857758     0.587248     0.831891     0.108 
H1       H      0.918685     0.242047     0.487543     0.108 
H1       H      0.418685     0.742047     0.487543     0.108 
H1       H      0.418685     0.242047     0.987543     0.108 
H1       H      0.918685     0.742047     0.987543     0.108 
Cr1      Cr     0.42799      0.01291      0.0947304    1.619 
Cr1      Cr     0.92799      0.51291      0.0947304    1.619 
Cr1      Cr     0.92799      0.01291      0.59473      1.619 
Cr1      Cr     0.42799      0.51291      0.59473      1.619 
Cr2      Cr     0.79246      0.20846      0.3228       1.35  
Cr2      Cr     0.29246      0.70846      0.3228       1.35  
Cr2      Cr     0.29246      0.20846      0.8228       1.35  
Cr2      Cr     0.79246      0.70846      0.8228       1.35  
O2       O      0.90982      0.43036      0.35869     -0.574 
O2       O      0.40982      0.93036      0.35869     -0.574 
O2       O      0.40982      0.43036      0.85869     -0.574 
O2       O      0.90982      0.93036      0.85869     -0.574 
O3       O      0.80587      0.22646      0.3239      -0.438 
O3       O      0.30587      0.72646      0.3239      -0.438 
O3       O      0.30587      0.22646      0.8239      -0.438 
O3       O      0.80587      0.72646      0.8239      -0.438 
O2       O      0.82263      0.3007       0.338859    -0.574 
O2       O      0.32263      0.8007       0.338859    -0.574 
O2       O      0.32263      0.3007       0.838859    -0.574 
O2       O      0.82263      0.8007       0.838859    -0.574 
O2       O      0.77416      0.32068      0.22122     -0.574 
O2       O      0.27416      0.82068      0.22122     -0.574 
O2       O      0.27416      0.32068      0.72122     -0.574 
O2       O      0.77416      0.82068      0.72122     -0.574 
O3       O      0.77195      0.29523      0.21763     -0.438 
O3       O      0.27195      0.79523      0.21763     -0.438 
O3       O      0.27195      0.29523      0.71763     -0.438 
O3       O      0.77195      0.79523      0.71763     -0.438 
O2       O      0.92561      0.48044      0.07701     -0.574 
O2       O      0.42561      0.98044      0.07701     -0.574 
O2       O      0.42561      0.48044      0.57701     -0.574 
O2       O      0.92561      0.98044      0.57701     -0.574 
O2       O      0.94003      0.49692      0.0877595   -0.574 
O2       O      0.44003      0.99692      0.0877595   -0.574 
O2       O      0.44003      0.49692      0.58776     -0.574 
O2       O      0.94003      0.99692      0.58776     -0.574 
O2       O      0.97279      0.39876      0.0875795   -0.574 
O2       O      0.47279      0.89876      0.0875795   -0.574 
O2       O      0.47279      0.39876      0.587579    -0.574 
O2       O      0.97279      0.89876      0.587579    -0.574 
O2       O      0.97747      0.38451      0.107739    -0.574 
O2       O      0.47747      0.88451      0.107739    -0.574 
O2       O      0.47747      0.38451      0.607739    -0.574 
O2       O      0.97747      0.88451      0.607739    -0.574 
O3       O      0.89811      0.37552      0.10125     -0.438 
O3       O      0.39811      0.87552      0.10125     -0.438 
O3       O      0.39811      0.37552      0.60125     -0.438 
O3       O      0.89811      0.87552      0.60125     -0.438 
O2       O      0.90693      0.36631      0.12292     -0.574 
O2       O      0.40693      0.86631      0.12292     -0.574 
O2       O      0.40693      0.36631      0.62292     -0.574 
O2       O      0.90693      0.86631      0.62292     -0.574 
O3       O      0.940889     0.42195      0.19362     -0.438 
O3       O      0.440889     0.92195      0.19362     -0.438 
O3       O      0.440889     0.42195      0.69362     -0.438 
O3       O      0.940889     0.92195      0.69362     -0.438 
O2       O      0.89622      0.379439     0.14839     -0.574 
O2       O      0.39622      0.879439     0.14839     -0.574 
O2       O      0.39622      0.379439     0.64839     -0.574 
O2       O      0.89622      0.879439     0.64839     -0.574 
O2       O      0.97624      0.45379      0.18523     -0.574 
O2       O      0.47624      0.95379      0.18523     -0.574 
O2       O      0.47624      0.45379      0.68523     -0.574 
O2       O      0.97624      0.95379      0.68523     -0.574 
O3       O      0.96912      0.430549     0.18927     -0.438 
O3       O      0.46912      0.930549     0.18927     -0.438 
O3       O      0.46912      0.430549     0.68927     -0.438 
O3       O      0.96912      0.930549     0.68927     -0.438 
O3       O      0.00664011   0.42722      0.11692     -0.438 
O3       O      0.50664      0.92722      0.11692     -0.438 
O3       O      0.50664      0.42722      0.61692     -0.438 
O3       O      0.00664011   0.92722      0.61692     -0.438 
O2       O      0.99662      0.40475      0.12647     -0.574 
O2       O      0.49662      0.90475      0.12647     -0.574 
O2       O      0.49662      0.40475      0.62647     -0.574 
O2       O      0.99662      0.90475      0.62647     -0.574 
F1       F      0.788729     0.21087      0.34415     -0.547 
F1       F      0.288729     0.71087      0.34415     -0.547 
F1       F      0.288729     0.21087      0.84415     -0.547 
F1       F      0.788729     0.71087      0.84415     -0.547 
C3       C      0.89071      0.43066      0.3795      -0.058 
C3       C      0.39071      0.93066      0.3795      -0.058 
C3       C      0.39071      0.43066      0.8795      -0.058 
C3       C      0.89071      0.93066      0.8795      -0.058 
C3       C      0.812        0.25507      0.33163     -0.058 
C3       C      0.312        0.75507      0.33163     -0.058 
C3       C      0.312        0.25507      0.83163     -0.058 
C3       C      0.812        0.75507      0.83163     -0.058 
C3       C      0.8153       0.27052      0.335059    -0.058 
C3       C      0.3153       0.77052      0.335059    -0.058 
C3       C      0.3153       0.27052      0.835059    -0.058 
C3       C      0.8153       0.77052      0.835059    -0.058 
C3       C      0.74748      0.29691      0.23623     -0.058 
C3       C      0.24748      0.79691      0.23623     -0.058 
C3       C      0.24748      0.29691      0.73623     -0.058 
C3       C      0.74748      0.79691      0.73623     -0.058 
C1       C      0.770329     0.30736      0.226        0.496 
C1       C      0.27033      0.80736      0.226        0.496 
C1       C      0.27033      0.30736      0.726        0.496 
C1       C      0.770329     0.80736      0.726        0.496 
C2       C      0.7594       0.30736      0.23755     -0.07  
C2       C      0.2594       0.80736      0.23755     -0.07  
C2       C      0.2594       0.30736      0.73755     -0.07  
C2       C      0.7594       0.80736      0.73755     -0.07  
C3       C      0.75632      0.32141      0.24506     -0.058 
C3       C      0.25632      0.82141      0.24506     -0.058 
C3       C      0.25632      0.32141      0.74506     -0.058 
C3       C      0.75632      0.82141      0.74506     -0.058 
C3       C      0.94769      0.45923      0.0718394   -0.058 
C3       C      0.44769      0.95923      0.0718394   -0.058 
C3       C      0.44769      0.45923      0.571839    -0.058 
C3       C      0.94769      0.95923      0.571839    -0.058 
C1       C      0.9387       0.48456      0.0802203    0.496 
C1       C      0.4387       0.984559     0.0802203    0.496 
C1       C      0.4387       0.48456      0.58022      0.496 
C1       C      0.9387       0.984559     0.58022      0.496 
C2       C      0.949819     0.47259      0.0811104   -0.07  
C2       C      0.449819     0.97259      0.0811104   -0.07  
C2       C      0.449819     0.47259      0.58111     -0.07  
C2       C      0.949819     0.97259      0.58111     -0.07  
C3       C      0.96067      0.47197      0.0928997   -0.058 
C3       C      0.46067      0.97197      0.0928997   -0.058 
C3       C      0.46067      0.47197      0.5929      -0.058 
C3       C      0.96067      0.97197      0.5929      -0.058 
C3       C      0.94184      0.39347      0.09204     -0.058 
C3       C      0.44184      0.89347      0.09204     -0.058 
C3       C      0.44184      0.39347      0.59204     -0.058 
C3       C      0.94184      0.89347      0.59204     -0.058 
C1       C      0.96908      0.38844      0.0967098    0.496 
C1       C      0.46908      0.88844      0.0967098    0.496 
C1       C      0.46908      0.38844      0.59671      0.496 
C1       C      0.96908      0.88844      0.59671      0.496 
C2       C      0.95404      0.38504      0.0989096   -0.07  
C2       C      0.45404      0.88504      0.0989096   -0.07  
C2       C      0.45404      0.38504      0.59891     -0.07  
C2       C      0.95404      0.88504      0.59891     -0.07  
C3       C      0.9269       0.38883      0.0947203   -0.058 
C3       C      0.4269       0.88883      0.0947203   -0.058 
C3       C      0.4269       0.38883      0.59472     -0.058 
C3       C      0.9269       0.88883      0.59472     -0.058 
C1       C      0.90929      0.37309      0.110299     0.496 
C1       C      0.40929      0.87309      0.110299     0.496 
C1       C      0.40929      0.37309      0.610299     0.496 
C1       C      0.90929      0.87309      0.610299     0.496 
C2       C      0.92411      0.3795       0.10769     -0.07  
C2       C      0.42411      0.8795       0.10769     -0.07  
C2       C      0.42411      0.3795       0.60769     -0.07  
C2       C      0.92411      0.8795       0.60769     -0.07  
C3       C      0.95164      0.37746      0.11224     -0.058 
C3       C      0.45164      0.87746      0.11224     -0.058 
C3       C      0.45164      0.37746      0.612239    -0.058 
C3       C      0.95164      0.87746      0.612239    -0.058 
C3       C      0.9365       0.37311      0.11582     -0.058 
C3       C      0.4365       0.87311      0.11582     -0.058 
C3       C      0.4365       0.37311      0.61582     -0.058 
C3       C      0.9365       0.87311      0.61582     -0.058 
C3       C      0.92322      0.40471      0.17951     -0.058 
C3       C      0.42322      0.90471      0.17951     -0.058 
C3       C      0.42322      0.40471      0.67951     -0.058 
C3       C      0.92322      0.90471      0.67951     -0.058 
C3       C      0.91515      0.39645      0.16801     -0.058 
C3       C      0.41515      0.89645      0.16801     -0.058 
C3       C      0.41515      0.39645      0.66801     -0.058 
C3       C      0.91515      0.89645      0.66801     -0.058 
C3       C      0.98645      0.44571      0.15706     -0.058 
C3       C      0.48645      0.94571      0.15706     -0.058 
C3       C      0.48645      0.44571      0.65706     -0.058 
C3       C      0.98645      0.94571      0.65706     -0.058 
C1       C      0.97536      0.44016      0.181299     0.496 
C1       C      0.47536      0.94016      0.181299     0.496 
C1       C      0.47536      0.44016      0.681299     0.496 
C1       C      0.97536      0.94016      0.681299     0.496 
C2       C      0.98193      0.43518      0.16789     -0.07  
C2       C      0.48193      0.93518      0.16789     -0.07  
C2       C      0.48193      0.43518      0.66789     -0.07  
C2       C      0.98193      0.93518      0.66789     -0.07  
C3       C      0.99383      0.44076      0.14422     -0.058 
C3       C      0.49383      0.94076      0.14422     -0.058 
C3       C      0.49383      0.44076      0.64422     -0.058 
C3       C      0.99383      0.94076      0.64422     -0.058 
C1       C      0.99905      0.41918      0.12747      0.496 
C1       C      0.49905      0.91918      0.12747      0.496 
C1       C      0.49905      0.41918      0.62747      0.496 
C1       C      0.99905      0.91918      0.62747      0.496 
C2       C      0.99511      0.42522      0.14175     -0.07  
C2       C      0.49511      0.92522      0.14175     -0.07  
C2       C      0.49511      0.42522      0.64175     -0.07  
C2       C      0.99511      0.92522      0.64175     -0.07  
C3       C      0.98154      0.41968      0.16484     -0.058 
C3       C      0.48154      0.91968      0.16484     -0.058 
C3       C      0.48154      0.41968      0.66484     -0.058 
C3       C      0.98154      0.91968      0.66484     -0.058 
C3       C      0.98829      0.41458      0.15158     -0.058 
C3       C      0.48829      0.91458      0.15158     -0.058 
C3       C      0.48829      0.41458      0.65158     -0.058 
C3       C      0.98829      0.91458      0.65158     -0.058 
H1       H      0.802505     0.249672     0.3367       0.108 
H1       H      0.302505     0.749672     0.3367       0.108 
H1       H      0.302505     0.249672     0.8367       0.108 
H1       H      0.802505     0.749672     0.8367       0.108 
H1       H      0.808789     0.276373     0.343313     0.108 
H1       H      0.308789     0.776373     0.343313     0.108 
H1       H      0.308789     0.276373     0.843313     0.108 
H1       H      0.808789     0.776373     0.843313     0.108 
H1       H      0.934559     0.401732     0.182218     0.108 
H1       H      0.434559     0.901732     0.182218     0.108 
H1       H      0.434559     0.401732     0.682218     0.108 
H1       H      0.934559     0.901732     0.682218     0.108 
H1       H      0.919364     0.385871     0.164125     0.108 
H1       H      0.419364     0.885871     0.164125     0.108 
H1       H      0.419364     0.385871     0.664125     0.108 
H1       H      0.919364     0.885871     0.664125     0.108 
H1       H      0.902375     0.428901     0.381832     0.108 
H1       H      0.402375     0.928901     0.381832     0.108 
H1       H      0.402375     0.428901     0.881832     0.108 
H1       H      0.902375     0.928901     0.881832     0.108 
H1       H      0.747154     0.289301     0.226915     0.108 
H1       H      0.247154     0.789301     0.226915     0.108 
H1       H      0.247154     0.289301     0.726915     0.108 
H1       H      0.747154     0.789301     0.726915     0.108 
H1       H      0.976187     0.412162     0.172561     0.108 
H1       H      0.476187     0.912162     0.172561     0.108 
H1       H      0.476187     0.412162     0.672561     0.108 
H1       H      0.976187     0.912162     0.672561     0.108 
H1       H      0.988276     0.402826     0.14895      0.108 
H1       H      0.488276     0.902826     0.14895      0.108 
H1       H      0.488276     0.402826     0.64895      0.108 
H1       H      0.988276     0.902826     0.64895      0.108 
H1       H      0.984203     0.457414     0.15874      0.108 
H1       H      0.484203     0.957414     0.15874      0.108 
H1       H      0.484203     0.457414     0.65874      0.108 
H1       H      0.984203     0.957414     0.65874      0.108 
H1       H      0.998402     0.448741     0.136449     0.108 
H1       H      0.498402     0.948741     0.136449     0.108 
H1       H      0.498402     0.448741     0.636449     0.108 
H1       H      0.998402     0.948741     0.636449     0.108 
H1       H      0.937739     0.458053     0.0651802    0.108 
H1       H      0.437739     0.958053     0.0651802    0.108 
H1       H      0.437739     0.458053     0.56518      0.108 
H1       H      0.937739     0.958053     0.56518      0.108 
H1       H      0.960334     0.480043     0.101816     0.108 
H1       H      0.460334     0.980043     0.101816     0.108 
H1       H      0.460334     0.480043     0.601816     0.108 
H1       H      0.960334     0.980043     0.601816     0.108 
H1       H      0.960902     0.375009     0.119519     0.108 
H1       H      0.460902     0.875009     0.119519     0.108 
H1       H      0.460902     0.375009     0.619519     0.108 
H1       H      0.960902     0.875009     0.619519     0.108 
H1       H      0.934466     0.365095     0.124561     0.108 
H1       H      0.434466     0.865095     0.124561     0.108 
H1       H      0.434466     0.365095     0.624561     0.108 
H1       H      0.934466     0.865095     0.624561     0.108 
H1       H      0.944271     0.403        0.0850983    0.108 
H1       H      0.444271     0.903        0.0850983    0.108 
H1       H      0.444271     0.403        0.585098     0.108 
H1       H      0.944271     0.903        0.585098     0.108 
H1       H      0.918109     0.392241     0.0872475    0.108 
H1       H      0.418109     0.892241     0.0872475    0.108 
H1       H      0.418109     0.392241     0.587248     0.108 
H1       H      0.918109     0.892241     0.587248     0.108 
H1       H      0.762456     0.331316     0.242047     0.108 
H1       H      0.262456     0.831316     0.242047     0.108 
H1       H      0.262456     0.331316     0.742047     0.108 
H1       H      0.762456     0.831316     0.742047     0.108 
Cr1      Cr     0.82201      0.01291      0.15527      1.619 
Cr1      Cr     0.32201      0.51291      0.15527      1.619 
Cr1      Cr     0.32201      0.01291      0.65527      1.619 
Cr1      Cr     0.82201      0.51291      0.65527      1.619 
Cr2      Cr     0.95754      0.20846      0.4272       1.35  
Cr2      Cr     0.45754      0.70846      0.4272       1.35  
Cr2      Cr     0.45754      0.20846      0.9272       1.35  
Cr2      Cr     0.95754      0.70846      0.9272       1.35  
O2       O      0.840179     0.43036      0.39131     -0.574 
O2       O      0.34018      0.93036      0.39131     -0.574 
O2       O      0.34018      0.43036      0.89131     -0.574 
O2       O      0.840179     0.93036      0.89131     -0.574 
O3       O      0.94413      0.22646      0.4261      -0.438 
O3       O      0.44413      0.72646      0.4261      -0.438 
O3       O      0.44413      0.22646      0.9261      -0.438 
O3       O      0.94413      0.72646      0.9261      -0.438 
O2       O      0.927369     0.3007       0.41114     -0.574 
O2       O      0.427369     0.8007       0.41114     -0.574 
O2       O      0.427369     0.3007       0.91114     -0.574 
O2       O      0.927369     0.8007       0.91114     -0.574 
O2       O      0.47584      0.32068      0.0287794   -0.574 
O2       O      0.97584      0.82068      0.0287794   -0.574 
O2       O      0.97584      0.32068      0.528779    -0.574 
O2       O      0.47584      0.82068      0.528779    -0.574 
O3       O      0.47805      0.29523      0.0323701   -0.438 
O3       O      0.97805      0.79523      0.0323701   -0.438 
O3       O      0.97805      0.29523      0.53237     -0.438 
O3       O      0.47805      0.79523      0.53237     -0.438 
O2       O      0.32439      0.48044      0.172989    -0.574 
O2       O      0.82439      0.98044      0.172989    -0.574 
O2       O      0.82439      0.48044      0.672989    -0.574 
O2       O      0.32439      0.98044      0.672989    -0.574 
O2       O      0.30997      0.49692      0.16224     -0.574 
O2       O      0.80997      0.99692      0.16224     -0.574 
O2       O      0.80997      0.49692      0.66224     -0.574 
O2       O      0.30997      0.99692      0.66224     -0.574 
O2       O      0.27721      0.39876      0.16242     -0.574 
O2       O      0.77721      0.89876      0.16242     -0.574 
O2       O      0.77721      0.39876      0.66242     -0.574 
O2       O      0.27721      0.89876      0.66242     -0.574 
O3       O      0.27253      0.38451      0.14226     -0.438 
O3       O      0.77253      0.88451      0.14226     -0.438 
O3       O      0.77253      0.38451      0.64226     -0.438 
O3       O      0.27253      0.88451      0.64226     -0.438 
O2       O      0.35189      0.37552      0.14875     -0.574 
O2       O      0.85189      0.87552      0.14875     -0.574 
O2       O      0.85189      0.37552      0.64875     -0.574 
O2       O      0.35189      0.87552      0.64875     -0.574 
O2       O      0.34307      0.36631      0.12708     -0.574 
O2       O      0.84307      0.86631      0.12708     -0.574 
O2       O      0.84307      0.36631      0.62708     -0.574 
O2       O      0.34307      0.86631      0.62708     -0.574 
O3       O      0.30911      0.42195      0.0563796   -0.438 
O3       O      0.80911      0.92195      0.0563796   -0.438 
O3       O      0.80911      0.42195      0.55638     -0.438 
O3       O      0.30911      0.92195      0.55638     -0.438 
O2       O      0.35378      0.379439     0.10161     -0.574 
O2       O      0.85378      0.879439     0.10161     -0.574 
O2       O      0.85378      0.379439     0.60161     -0.574 
O2       O      0.35378      0.879439     0.60161     -0.574 
O2       O      0.27376      0.45379      0.0647695   -0.574 
O2       O      0.77376      0.95379      0.0647695   -0.574 
O2       O      0.77376      0.45379      0.564769    -0.574 
O2       O      0.27376      0.95379      0.564769    -0.574 
O3       O      0.28088      0.430549     0.0607298   -0.438 
O3       O      0.78088      0.930549     0.0607298   -0.438 
O3       O      0.78088      0.430549     0.56073     -0.438 
O3       O      0.28088      0.930549     0.56073     -0.438 
O2       O      0.24336      0.42722      0.13308     -0.574 
O2       O      0.74336      0.92722      0.13308     -0.574 
O2       O      0.74336      0.42722      0.63308     -0.574 
O2       O      0.24336      0.92722      0.63308     -0.574 
O3       O      0.25338      0.40475      0.12353     -0.438 
O3       O      0.75338      0.90475      0.12353     -0.438 
O3       O      0.75338      0.40475      0.62353     -0.438 
O3       O      0.25338      0.90475      0.62353     -0.438 
F1       F      0.96127      0.21087      0.40585     -0.547 
F1       F      0.46127      0.71087      0.40585     -0.547 
F1       F      0.46127      0.21087      0.90585     -0.547 
F1       F      0.96127      0.71087      0.90585     -0.547 
C3       C      0.85929      0.43066      0.3705      -0.058 
C3       C      0.35929      0.93066      0.3705      -0.058 
C3       C      0.35929      0.43066      0.8705      -0.058 
C3       C      0.85929      0.93066      0.8705      -0.058 
C3       C      0.938        0.25507      0.41837     -0.058 
C3       C      0.438        0.75507      0.41837     -0.058 
C3       C      0.438        0.25507      0.91837     -0.058 
C3       C      0.938        0.75507      0.91837     -0.058 
C3       C      0.934699     0.27052      0.41494     -0.058 
C3       C      0.434701     0.77052      0.41494     -0.058 
C3       C      0.434701     0.27052      0.91494     -0.058 
C3       C      0.934699     0.77052      0.91494     -0.058 
C3       C      0.502519     0.29691      0.0137697   -0.058 
C3       C      0.00252056   0.79691      0.0137697   -0.058 
C3       C      0.00252056   0.29691      0.51377     -0.058 
C3       C      0.502519     0.79691      0.51377     -0.058 
C1       C      0.47967      0.30736      0.0240005    0.496 
C1       C      0.97967      0.80736      0.0240005    0.496 
C1       C      0.97967      0.30736      0.523999     0.496 
C1       C      0.47967      0.80736      0.523999     0.496 
C2       C      0.4906       0.30736      0.0124498   -0.07  
C2       C      0.9906       0.80736      0.0124498   -0.07  
C2       C      0.9906       0.30736      0.51245     -0.07  
C2       C      0.4906       0.80736      0.51245     -0.07  
C3       C      0.493679     0.32141      0.00493986  -0.058 
C3       C      0.993679     0.82141      0.00493986  -0.058 
C3       C      0.993679     0.32141      0.50494     -0.058 
C3       C      0.493679     0.82141      0.50494     -0.058 
C3       C      0.30231      0.45923      0.17816     -0.058 
C3       C      0.80231      0.95923      0.17816     -0.058 
C3       C      0.80231      0.45923      0.67816     -0.058 
C3       C      0.30231      0.95923      0.67816     -0.058 
C1       C      0.3113       0.48456      0.16978      0.496 
C1       C      0.8113       0.984559     0.16978      0.496 
C1       C      0.8113       0.48456      0.66978      0.496 
C1       C      0.3113       0.984559     0.66978      0.496 
C2       C      0.30018      0.47259      0.16889     -0.07  
C2       C      0.80018      0.97259      0.16889     -0.07  
C2       C      0.80018      0.47259      0.66889     -0.07  
C2       C      0.30018      0.97259      0.66889     -0.07  
C3       C      0.28933      0.47197      0.1571      -0.058 
C3       C      0.78933      0.97197      0.1571      -0.058 
C3       C      0.78933      0.47197      0.6571      -0.058 
C3       C      0.28933      0.97197      0.6571      -0.058 
C3       C      0.30816      0.39347      0.157959    -0.058 
C3       C      0.80816      0.89347      0.157959    -0.058 
C3       C      0.80816      0.39347      0.657959    -0.058 
C3       C      0.30816      0.89347      0.657959    -0.058 
C1       C      0.28092      0.38844      0.15329      0.496 
C1       C      0.78092      0.88844      0.15329      0.496 
C1       C      0.78092      0.38844      0.65329      0.496 
C1       C      0.28092      0.88844      0.65329      0.496 
C2       C      0.29596      0.38504      0.15109     -0.07  
C2       C      0.79596      0.88504      0.15109     -0.07  
C2       C      0.79596      0.38504      0.65109     -0.07  
C2       C      0.29596      0.88504      0.65109     -0.07  
C3       C      0.3231       0.38883      0.15528     -0.058 
C3       C      0.8231       0.88883      0.15528     -0.058 
C3       C      0.8231       0.38883      0.65528     -0.058 
C3       C      0.3231       0.88883      0.65528     -0.058 
C1       C      0.34071      0.37309      0.1397       0.496 
C1       C      0.840709     0.87309      0.1397       0.496 
C1       C      0.840709     0.37309      0.6397       0.496 
C1       C      0.34071      0.87309      0.6397       0.496 
C2       C      0.32589      0.3795       0.142309    -0.07  
C2       C      0.82589      0.8795       0.142309    -0.07  
C2       C      0.82589      0.3795       0.642309    -0.07  
C2       C      0.32589      0.8795       0.642309    -0.07  
C3       C      0.298361     0.37746      0.13776     -0.058 
C3       C      0.798359     0.87746      0.13776     -0.058 
C3       C      0.798359     0.37746      0.63776     -0.058 
C3       C      0.298361     0.87746      0.63776     -0.058 
C3       C      0.3135       0.37311      0.13418     -0.058 
C3       C      0.8135       0.87311      0.13418     -0.058 
C3       C      0.8135       0.37311      0.63418     -0.058 
C3       C      0.3135       0.87311      0.63418     -0.058 
C3       C      0.32678      0.40471      0.0704903   -0.058 
C3       C      0.82678      0.90471      0.0704903   -0.058 
C3       C      0.82678      0.40471      0.57049     -0.058 
C3       C      0.32678      0.90471      0.57049     -0.058 
C3       C      0.33485      0.39645      0.0819903   -0.058 
C3       C      0.83485      0.89645      0.0819903   -0.058 
C3       C      0.83485      0.39645      0.58199     -0.058 
C3       C      0.33485      0.89645      0.58199     -0.058 
C3       C      0.26355      0.44571      0.0929402   -0.058 
C3       C      0.76355      0.94571      0.0929402   -0.058 
C3       C      0.76355      0.44571      0.59294     -0.058 
C3       C      0.26355      0.94571      0.59294     -0.058 
C1       C      0.27464      0.44016      0.0687       0.496 
C1       C      0.77464      0.94016      0.0687       0.496 
C1       C      0.77464      0.44016      0.5687       0.496 
C1       C      0.27464      0.94016      0.5687       0.496 
C2       C      0.26807      0.43518      0.0821096   -0.07  
C2       C      0.76807      0.93518      0.0821096   -0.07  
C2       C      0.76807      0.43518      0.58211     -0.07  
C2       C      0.26807      0.93518      0.58211     -0.07  
C3       C      0.25617      0.44076      0.10578     -0.058 
C3       C      0.75617      0.94076      0.10578     -0.058 
C3       C      0.75617      0.44076      0.60578     -0.058 
C3       C      0.25617      0.94076      0.60578     -0.058 
C1       C      0.25095      0.41918      0.12253      0.496 
C1       C      0.75095      0.91918      0.12253      0.496 
C1       C      0.75095      0.41918      0.62253      0.496 
C1       C      0.25095      0.91918      0.62253      0.496 
C2       C      0.25489      0.42522      0.10825     -0.07  
C2       C      0.75489      0.92522      0.10825     -0.07  
C2       C      0.75489      0.42522      0.60825     -0.07  
C2       C      0.25489      0.92522      0.60825     -0.07  
C3       C      0.26846      0.41968      0.0851602   -0.058 
C3       C      0.76846      0.91968      0.0851602   -0.058 
C3       C      0.76846      0.41968      0.58516     -0.058 
C3       C      0.26846      0.91968      0.58516     -0.058 
C3       C      0.26171      0.41458      0.0984201   -0.058 
C3       C      0.76171      0.91458      0.0984201   -0.058 
C3       C      0.76171      0.41458      0.59842     -0.058 
C3       C      0.26171      0.91458      0.59842     -0.058 
H1       H      0.947495     0.249672     0.413299     0.108 
H1       H      0.447495     0.749672     0.413299     0.108 
H1       H      0.447495     0.249672     0.913299     0.108 
H1       H      0.947495     0.749672     0.913299     0.108 
H1       H      0.94121      0.276373     0.406686     0.108 
H1       H      0.44121      0.776373     0.406686     0.108 
H1       H      0.44121      0.276373     0.906686     0.108 
H1       H      0.94121      0.776373     0.906686     0.108 
H1       H      0.315441     0.401732     0.0677829    0.108 
H1       H      0.815441     0.901732     0.0677829    0.108 
H1       H      0.815441     0.401732     0.567783     0.108 
H1       H      0.315441     0.901732     0.567783     0.108 
H1       H      0.330635     0.385871     0.0858747    0.108 
H1       H      0.830635     0.885871     0.0858747    0.108 
H1       H      0.830635     0.385871     0.585875     0.108 
H1       H      0.330635     0.885871     0.585875     0.108 
H1       H      0.847624     0.428901     0.368168     0.108 
H1       H      0.347624     0.928901     0.368168     0.108 
H1       H      0.347624     0.428901     0.868168     0.108 
H1       H      0.847624     0.928901     0.868168     0.108 
H1       H      0.502846     0.289301     0.0230845    0.108 
H1       H      0.00284576   0.789301     0.0230845    0.108 
H1       H      0.00284576   0.289301     0.523085     0.108 
H1       H      0.502846     0.789301     0.523085     0.108 
H1       H      0.273812     0.412162     0.0774398    0.108 
H1       H      0.773812     0.912162     0.0774398    0.108 
H1       H      0.773812     0.412162     0.57744      0.108 
H1       H      0.273812     0.912162     0.57744      0.108 
H1       H      0.261723     0.402826     0.10105      0.108 
H1       H      0.761723     0.902826     0.10105      0.108 
H1       H      0.761723     0.402826     0.60105      0.108 
H1       H      0.261723     0.902826     0.60105      0.108 
H1       H      0.265798     0.457414     0.091259     0.108 
H1       H      0.765797     0.957414     0.091259     0.108 
H1       H      0.765797     0.457414     0.591259     0.108 
H1       H      0.265798     0.957414     0.591259     0.108 
H1       H      0.251598     0.448741     0.113551     0.108 
H1       H      0.751598     0.948741     0.113551     0.108 
H1       H      0.751598     0.448741     0.613551     0.108 
H1       H      0.251598     0.948741     0.613551     0.108 
H1       H      0.312261     0.458053     0.18482      0.108 
H1       H      0.812261     0.958053     0.18482      0.108 
H1       H      0.812261     0.458053     0.684819     0.108 
H1       H      0.312261     0.958053     0.684819     0.108 
H1       H      0.289666     0.480043     0.148184     0.108 
H1       H      0.789666     0.980043     0.148184     0.108 
H1       H      0.789666     0.480043     0.648184     0.108 
H1       H      0.289666     0.980043     0.648184     0.108 
H1       H      0.289099     0.375009     0.130481     0.108 
H1       H      0.789099     0.875009     0.130481     0.108 
H1       H      0.789099     0.375009     0.630481     0.108 
H1       H      0.289099     0.875009     0.630481     0.108 
H1       H      0.315533     0.365095     0.12544      0.108 
H1       H      0.815533     0.865095     0.12544      0.108 
H1       H      0.815533     0.365095     0.62544      0.108 
H1       H      0.315533     0.865095     0.62544      0.108 
H1       H      0.305729     0.403        0.164901     0.108 
H1       H      0.805729     0.903        0.164901     0.108 
H1       H      0.805729     0.403        0.664901     0.108 
H1       H      0.305729     0.903        0.664901     0.108 
H1       H      0.331891     0.392241     0.162753     0.108 
H1       H      0.831891     0.892241     0.162753     0.108 
H1       H      0.831891     0.392241     0.662753     0.108 
H1       H      0.331891     0.892241     0.662753     0.108 
H1       H      0.487543     0.331316     0.00795328   0.108 
H1       H      0.987543     0.831316     0.00795328   0.108 
H1       H      0.987543     0.331316     0.507953     0.108 
H1       H      0.487543     0.831316     0.507953     0.108 
Cr1      Cr     0.42799      0.237089     0.15527      1.619 
Cr1      Cr     0.92799      0.737089     0.15527      1.619 
Cr1      Cr     0.92799      0.237089     0.65527      1.619 
Cr1      Cr     0.42799      0.737089     0.65527      1.619 
Cr1      Cr     0.29246      0.0415398    0.4272       1.619 
Cr1      Cr     0.79246      0.54154      0.4272       1.619 
Cr1      Cr     0.79246      0.0415398    0.9272       1.619 
Cr1      Cr     0.29246      0.54154      0.9272       1.619 
O2       O      0.90982      0.31964      0.39131     -0.574 
O2       O      0.40982      0.81964      0.39131     -0.574 
O2       O      0.40982      0.31964      0.89131     -0.574 
O2       O      0.90982      0.81964      0.89131     -0.574 
O2       O      0.30587      0.0235403    0.4261      -0.574 
O2       O      0.80587      0.52354      0.4261      -0.574 
O2       O      0.80587      0.0235403    0.9261      -0.574 
O2       O      0.30587      0.52354      0.9261      -0.574 
O2       O      0.82263      0.4493       0.41114     -0.574 
O2       O      0.32263      0.9493       0.41114     -0.574 
O2       O      0.32263      0.4493       0.91114     -0.574 
O2       O      0.82263      0.9493       0.91114     -0.574 
O3       O      0.27416      0.42932      0.0287794   -0.438 
O3       O      0.77416      0.92932      0.0287794   -0.438 
O3       O      0.77416      0.42932      0.528779    -0.438 
O3       O      0.27416      0.92932      0.528779    -0.438 
O2       O      0.27195      0.454771     0.0323701   -0.574 
O2       O      0.77195      0.954769     0.0323701   -0.574 
O2       O      0.77195      0.454771     0.53237     -0.574 
O2       O      0.27195      0.954769     0.53237     -0.574 
O2       O      0.42561      0.26956      0.172989    -0.574 
O2       O      0.92561      0.76956      0.172989    -0.574 
O2       O      0.92561      0.26956      0.672989    -0.574 
O2       O      0.42561      0.76956      0.672989    -0.574 
O2       O      0.44003      0.25308      0.16224     -0.574 
O2       O      0.94003      0.75308      0.16224     -0.574 
O2       O      0.94003      0.25308      0.66224     -0.574 
O2       O      0.44003      0.75308      0.66224     -0.574 
O2       O      0.47279      0.351239     0.16242     -0.574 
O2       O      0.97279      0.851239     0.16242     -0.574 
O2       O      0.97279      0.351239     0.66242     -0.574 
O2       O      0.47279      0.851239     0.66242     -0.574 
O2       O      0.47747      0.36549      0.14226     -0.574 
O2       O      0.97747      0.86549      0.14226     -0.574 
O2       O      0.97747      0.36549      0.64226     -0.574 
O2       O      0.47747      0.86549      0.64226     -0.574 
O2       O      0.39811      0.37448      0.14875     -0.574 
O2       O      0.89811      0.87448      0.14875     -0.574 
O2       O      0.89811      0.37448      0.64875     -0.574 
O2       O      0.39811      0.87448      0.64875     -0.574 
O3       O      0.40693      0.383689     0.12708     -0.438 
O3       O      0.90693      0.883689     0.12708     -0.438 
O3       O      0.90693      0.383689     0.62708     -0.438 
O3       O      0.40693      0.883689     0.62708     -0.438 
O2       O      0.440889     0.32805      0.0563796   -0.574 
O2       O      0.940889     0.82805      0.0563796   -0.574 
O2       O      0.940889     0.32805      0.55638     -0.574 
O2       O      0.440889     0.82805      0.55638     -0.574 
O3       O      0.39622      0.37056      0.10161     -0.438 
O3       O      0.89622      0.87056      0.10161     -0.438 
O3       O      0.89622      0.37056      0.60161     -0.438 
O3       O      0.39622      0.87056      0.60161     -0.438 
O3       O      0.47624      0.29621      0.0647695   -0.438 
O3       O      0.97624      0.79621      0.0647695   -0.438 
O3       O      0.97624      0.29621      0.564769    -0.438 
O3       O      0.47624      0.79621      0.564769    -0.438 
O2       O      0.46912      0.31945      0.0607298   -0.574 
O2       O      0.96912      0.81945      0.0607298   -0.574 
O2       O      0.96912      0.31945      0.56073     -0.574 
O2       O      0.46912      0.81945      0.56073     -0.574 
O3       O      0.50664      0.32278      0.13308     -0.438 
O3       O      0.00664011   0.82278      0.13308     -0.438 
O3       O      0.00664011   0.32278      0.63308     -0.438 
O3       O      0.50664      0.82278      0.63308     -0.438 
O2       O      0.49662      0.34525      0.12353     -0.574 
O2       O      0.99662      0.84525      0.12353     -0.574 
O2       O      0.99662      0.34525      0.62353     -0.574 
O2       O      0.49662      0.84525      0.62353     -0.574 
C3       C      0.89071      0.31934      0.3705      -0.058 
C3       C      0.39071      0.81934      0.3705      -0.058 
C3       C      0.39071      0.31934      0.8705      -0.058 
C3       C      0.89071      0.81934      0.8705      -0.058 
C3       C      0.812        0.49493      0.41837     -0.058 
C3       C      0.312        0.99493      0.41837     -0.058 
C3       C      0.312        0.49493      0.91837     -0.058 
C3       C      0.812        0.99493      0.91837     -0.058 
C3       C      0.8153       0.47948      0.41494     -0.058 
C3       C      0.3153       0.97948      0.41494     -0.058 
C3       C      0.3153       0.47948      0.91494     -0.058 
C3       C      0.8153       0.97948      0.91494     -0.058 
C3       C      0.24748      0.453091     0.0137697   -0.058 
C3       C      0.74748      0.953089     0.0137697   -0.058 
C3       C      0.74748      0.453091     0.51377     -0.058 
C3       C      0.24748      0.953089     0.51377     -0.058 
C1       C      0.27033      0.44264      0.0240005    0.496 
C1       C      0.770329     0.94264      0.0240005    0.496 
C1       C      0.770329     0.44264      0.523999     0.496 
C1       C      0.27033      0.94264      0.523999     0.496 
C2       C      0.2594       0.44264      0.0124498   -0.07  
C2       C      0.7594       0.94264      0.0124498   -0.07  
C2       C      0.7594       0.44264      0.51245     -0.07  
C2       C      0.2594       0.94264      0.51245     -0.07  
C3       C      0.25632      0.42859      0.00493986  -0.058 
C3       C      0.75632      0.92859      0.00493986  -0.058 
C3       C      0.75632      0.42859      0.50494     -0.058 
C3       C      0.25632      0.92859      0.50494     -0.058 
C3       C      0.44769      0.29077      0.17816     -0.058 
C3       C      0.94769      0.79077      0.17816     -0.058 
C3       C      0.94769      0.29077      0.67816     -0.058 
C3       C      0.44769      0.79077      0.67816     -0.058 
C1       C      0.4387       0.26544      0.16978      0.496 
C1       C      0.9387       0.76544      0.16978      0.496 
C1       C      0.9387       0.26544      0.66978      0.496 
C1       C      0.4387       0.76544      0.66978      0.496 
C2       C      0.449819     0.277409     0.16889     -0.07  
C2       C      0.949819     0.777409     0.16889     -0.07  
C2       C      0.949819     0.277409     0.66889     -0.07  
C2       C      0.449819     0.777409     0.66889     -0.07  
C3       C      0.46067      0.278029     0.1571      -0.058 
C3       C      0.96067      0.778029     0.1571      -0.058 
C3       C      0.96067      0.278029     0.6571      -0.058 
C3       C      0.46067      0.778029     0.6571      -0.058 
C3       C      0.44184      0.35653      0.157959    -0.058 
C3       C      0.94184      0.85653      0.157959    -0.058 
C3       C      0.94184      0.35653      0.657959    -0.058 
C3       C      0.44184      0.85653      0.657959    -0.058 
C1       C      0.46908      0.36156      0.15329      0.496 
C1       C      0.96908      0.86156      0.15329      0.496 
C1       C      0.96908      0.36156      0.65329      0.496 
C1       C      0.46908      0.86156      0.65329      0.496 
C2       C      0.45404      0.36496      0.15109     -0.07  
C2       C      0.95404      0.86496      0.15109     -0.07  
C2       C      0.95404      0.36496      0.65109     -0.07  
C2       C      0.45404      0.86496      0.65109     -0.07  
C3       C      0.4269       0.36117      0.15528     -0.058 
C3       C      0.9269       0.86117      0.15528     -0.058 
C3       C      0.9269       0.36117      0.65528     -0.058 
C3       C      0.4269       0.86117      0.65528     -0.058 
C1       C      0.40929      0.37691      0.1397       0.496 
C1       C      0.90929      0.87691      0.1397       0.496 
C1       C      0.90929      0.37691      0.6397       0.496 
C1       C      0.40929      0.87691      0.6397       0.496 
C2       C      0.42411      0.3705       0.142309    -0.07  
C2       C      0.92411      0.8705       0.142309    -0.07  
C2       C      0.92411      0.3705       0.642309    -0.07  
C2       C      0.42411      0.8705       0.642309    -0.07  
C3       C      0.45164      0.37254      0.13776     -0.058 
C3       C      0.95164      0.872539     0.13776     -0.058 
C3       C      0.95164      0.37254      0.63776     -0.058 
C3       C      0.45164      0.872539     0.63776     -0.058 
C3       C      0.4365       0.37689      0.13418     -0.058 
C3       C      0.9365       0.87689      0.13418     -0.058 
C3       C      0.9365       0.37689      0.63418     -0.058 
C3       C      0.4365       0.87689      0.63418     -0.058 
C3       C      0.42322      0.34529      0.0704903   -0.058 
C3       C      0.92322      0.84529      0.0704903   -0.058 
C3       C      0.92322      0.34529      0.57049     -0.058 
C3       C      0.42322      0.84529      0.57049     -0.058 
C3       C      0.41515      0.35355      0.0819903   -0.058 
C3       C      0.91515      0.85355      0.0819903   -0.058 
C3       C      0.91515      0.35355      0.58199     -0.058 
C3       C      0.41515      0.85355      0.58199     -0.058 
C3       C      0.48645      0.304289     0.0929402   -0.058 
C3       C      0.98645      0.804289     0.0929402   -0.058 
C3       C      0.98645      0.304289     0.59294     -0.058 
C3       C      0.48645      0.804289     0.59294     -0.058 
C1       C      0.47536      0.30984      0.0687       0.496 
C1       C      0.97536      0.80984      0.0687       0.496 
C1       C      0.97536      0.30984      0.5687       0.496 
C1       C      0.47536      0.80984      0.5687       0.496 
C2       C      0.48193      0.31482      0.0821096   -0.07  
C2       C      0.98193      0.81482      0.0821096   -0.07  
C2       C      0.98193      0.31482      0.58211     -0.07  
C2       C      0.48193      0.81482      0.58211     -0.07  
C3       C      0.49383      0.309239     0.10578     -0.058 
C3       C      0.99383      0.809239     0.10578     -0.058 
C3       C      0.99383      0.309239     0.60578     -0.058 
C3       C      0.49383      0.809239     0.60578     -0.058 
C1       C      0.49905      0.33082      0.12253      0.496 
C1       C      0.99905      0.83082      0.12253      0.496 
C1       C      0.99905      0.33082      0.62253      0.496 
C1       C      0.49905      0.83082      0.62253      0.496 
C2       C      0.49511      0.32478      0.10825     -0.07  
C2       C      0.99511      0.82478      0.10825     -0.07  
C2       C      0.99511      0.32478      0.60825     -0.07  
C2       C      0.49511      0.82478      0.60825     -0.07  
C3       C      0.48154      0.33032      0.0851602   -0.058 
C3       C      0.98154      0.83032      0.0851602   -0.058 
C3       C      0.98154      0.33032      0.58516     -0.058 
C3       C      0.48154      0.83032      0.58516     -0.058 
C3       C      0.48829      0.33542      0.0984201   -0.058 
C3       C      0.98829      0.83542      0.0984201   -0.058 
C3       C      0.98829      0.33542      0.59842     -0.058 
C3       C      0.48829      0.83542      0.59842     -0.058 
H1       H      0.302505     0.000327448  0.413299     0.108 
H1       H      0.802505     0.500327     0.413299     0.108 
H1       H      0.802505     0.000327448  0.913299     0.108 
H1       H      0.302505     0.500327     0.913299     0.108 
H1       H      0.808789     0.473626     0.406686     0.108 
H1       H      0.308789     0.973626     0.406686     0.108 
H1       H      0.308789     0.473626     0.906686     0.108 
H1       H      0.808789     0.973626     0.906686     0.108 
H1       H      0.434559     0.348268     0.0677829    0.108 
H1       H      0.934559     0.848268     0.0677829    0.108 
H1       H      0.934559     0.348268     0.567783     0.108 
H1       H      0.434559     0.848268     0.567783     0.108 
H1       H      0.419364     0.364128     0.0858747    0.108 
H1       H      0.919364     0.864128     0.0858747    0.108 
H1       H      0.919364     0.364128     0.585875     0.108 
H1       H      0.419364     0.864128     0.585875     0.108 
H1       H      0.902375     0.3211       0.368168     0.108 
H1       H      0.402375     0.8211       0.368168     0.108 
H1       H      0.402375     0.3211       0.868168     0.108 
H1       H      0.902375     0.8211       0.868168     0.108 
H1       H      0.247154     0.460699     0.0230845    0.108 
H1       H      0.747154     0.960699     0.0230845    0.108 
H1       H      0.747154     0.460699     0.523085     0.108 
H1       H      0.247154     0.960699     0.523085     0.108 
H1       H      0.476187     0.337838     0.0774398    0.108 
H1       H      0.976187     0.837838     0.0774398    0.108 
H1       H      0.976187     0.337838     0.57744      0.108 
H1       H      0.476187     0.837838     0.57744      0.108 
H1       H      0.488276     0.347174     0.10105      0.108 
H1       H      0.988276     0.847174     0.10105      0.108 
H1       H      0.988276     0.347174     0.60105      0.108 
H1       H      0.488276     0.847174     0.60105      0.108 
H1       H      0.484203     0.292587     0.091259     0.108 
H1       H      0.984203     0.792587     0.091259     0.108 
H1       H      0.984203     0.292587     0.591259     0.108 
H1       H      0.484203     0.792587     0.591259     0.108 
H1       H      0.498402     0.301258     0.113551     0.108 
H1       H      0.998402     0.801258     0.113551     0.108 
H1       H      0.998402     0.301258     0.613551     0.108 
H1       H      0.498402     0.801258     0.613551     0.108 
H1       H      0.437739     0.291948     0.18482      0.108 
H1       H      0.937739     0.791948     0.18482      0.108 
H1       H      0.937739     0.291948     0.684819     0.108 
H1       H      0.437739     0.791948     0.684819     0.108 
H1       H      0.460334     0.269958     0.148184     0.108 
H1       H      0.960334     0.769958     0.148184     0.108 
H1       H      0.960334     0.269958     0.648184     0.108 
H1       H      0.460334     0.769958     0.648184     0.108 
H1       H      0.460902     0.374991     0.130481     0.108 
H1       H      0.960902     0.874991     0.130481     0.108 
H1       H      0.960902     0.374991     0.630481     0.108 
H1       H      0.460902     0.874991     0.630481     0.108 
H1       H      0.434466     0.384905     0.12544      0.108 
H1       H      0.934466     0.884905     0.12544      0.108 
H1       H      0.934466     0.384905     0.62544      0.108 
H1       H      0.434466     0.884905     0.62544      0.108 
H1       H      0.444271     0.347        0.164901     0.108 
H1       H      0.944271     0.847        0.164901     0.108 
H1       H      0.944271     0.347        0.664901     0.108 
H1       H      0.444271     0.847        0.664901     0.108 
H1       H      0.418109     0.357758     0.162753     0.108 
H1       H      0.918109     0.857758     0.162753     0.108 
H1       H      0.918109     0.357758     0.662753     0.108 
H1       H      0.418109     0.857758     0.662753     0.108 
H1       H      0.262456     0.418685     0.00795328   0.108 
H1       H      0.762456     0.918685     0.00795328   0.108 
H1       H      0.762456     0.418685     0.507953     0.108 
H1       H      0.262456     0.918685     0.507953     0.108 
Cr2      Cr     0.82201      0.237089     0.0947304    1.35  
Cr2      Cr     0.32201      0.737089     0.0947304    1.35  
Cr2      Cr     0.32201      0.237089     0.59473      1.35  
Cr2      Cr     0.82201      0.737089     0.59473      1.35  
Cr1      Cr     0.45754      0.0415398    0.3228       1.619 
Cr1      Cr     0.95754      0.54154      0.3228       1.619 
Cr1      Cr     0.95754      0.0415398    0.8228       1.619 
Cr1      Cr     0.45754      0.54154      0.8228       1.619 
O2       O      0.840179     0.31964      0.35869     -0.574 
O2       O      0.34018      0.81964      0.35869     -0.574 
O2       O      0.34018      0.31964      0.85869     -0.574 
O2       O      0.840179     0.81964      0.85869     -0.574 
O2       O      0.44413      0.0235403    0.3239      -0.574 
O2       O      0.94413      0.52354      0.3239      -0.574 
O2       O      0.94413      0.0235403    0.8239      -0.574 
O2       O      0.44413      0.52354      0.8239      -0.574 
O2       O      0.927369     0.4493       0.338859    -0.574 
O2       O      0.427369     0.9493       0.338859    -0.574 
O2       O      0.427369     0.4493       0.838859    -0.574 
O2       O      0.927369     0.9493       0.838859    -0.574 
O3       O      0.97584      0.42932      0.22122     -0.438 
O3       O      0.47584      0.92932      0.22122     -0.438 
O3       O      0.47584      0.42932      0.72122     -0.438 
O3       O      0.97584      0.92932      0.72122     -0.438 
O2       O      0.97805      0.454771     0.21763     -0.574 
O2       O      0.47805      0.954769     0.21763     -0.574 
O2       O      0.47805      0.454771     0.71763     -0.574 
O2       O      0.97805      0.954769     0.71763     -0.574 
O2       O      0.82439      0.26956      0.07701     -0.574 
O2       O      0.32439      0.76956      0.07701     -0.574 
O2       O      0.32439      0.26956      0.57701     -0.574 
O2       O      0.82439      0.76956      0.57701     -0.574 
O3       O      0.80997      0.25308      0.0877595   -0.438 
O3       O      0.30997      0.75308      0.0877595   -0.438 
O3       O      0.30997      0.25308      0.58776     -0.438 
O3       O      0.80997      0.75308      0.58776     -0.438 
O3       O      0.77721      0.351239     0.0875795   -0.438 
O3       O      0.27721      0.851239     0.0875795   -0.438 
O3       O      0.27721      0.351239     0.587579    -0.438 
O3       O      0.77721      0.851239     0.587579    -0.438 
O2       O      0.77253      0.36549      0.107739    -0.574 
O2       O      0.27253      0.86549      0.107739    -0.574 
O2       O      0.27253      0.36549      0.607739    -0.574 
O2       O      0.77253      0.86549      0.607739    -0.574 
O3       O      0.85189      0.37448      0.10125     -0.438 
O3       O      0.35189      0.87448      0.10125     -0.438 
O3       O      0.35189      0.37448      0.60125     -0.438 
O3       O      0.85189      0.87448      0.60125     -0.438 
O2       O      0.84307      0.383689     0.12292     -0.574 
O2       O      0.34307      0.883689     0.12292     -0.574 
O2       O      0.34307      0.383689     0.62292     -0.574 
O2       O      0.84307      0.883689     0.62292     -0.574 
O2       O      0.80911      0.32805      0.19362     -0.574 
O2       O      0.30911      0.82805      0.19362     -0.574 
O2       O      0.30911      0.32805      0.69362     -0.574 
O2       O      0.80911      0.82805      0.69362     -0.574 
O2       O      0.85378      0.37056      0.14839     -0.574 
O2       O      0.35378      0.87056      0.14839     -0.574 
O2       O      0.35378      0.37056      0.64839     -0.574 
O2       O      0.85378      0.87056      0.64839     -0.574 
O3       O      0.77376      0.29621      0.18523     -0.438 
O3       O      0.27376      0.79621      0.18523     -0.438 
O3       O      0.27376      0.29621      0.68523     -0.438 
O3       O      0.77376      0.79621      0.68523     -0.438 
O2       O      0.78088      0.31945      0.18927     -0.574 
O2       O      0.28088      0.81945      0.18927     -0.574 
O2       O      0.28088      0.31945      0.68927     -0.574 
O2       O      0.78088      0.81945      0.68927     -0.574 
O2       O      0.74336      0.32278      0.11692     -0.574 
O2       O      0.24336      0.82278      0.11692     -0.574 
O2       O      0.24336      0.32278      0.61692     -0.574 
O2       O      0.74336      0.82278      0.61692     -0.574 
O2       O      0.75338      0.34525      0.12647     -0.574 
O2       O      0.25338      0.84525      0.12647     -0.574 
O2       O      0.25338      0.34525      0.62647     -0.574 
O2       O      0.75338      0.84525      0.62647     -0.574 
F1       F      0.8025       0.22474      0.0942005   -0.547 
F1       F      0.3025       0.72474      0.0942005   -0.547 
F1       F      0.3025       0.22474      0.5942      -0.547 
F1       F      0.8025       0.72474      0.5942      -0.547 
C3       C      0.85929      0.31934      0.3795      -0.058 
C3       C      0.35929      0.81934      0.3795      -0.058 
C3       C      0.35929      0.31934      0.8795      -0.058 
C3       C      0.85929      0.81934      0.8795      -0.058 
C3       C      0.938        0.49493      0.33163     -0.058 
C3       C      0.438        0.99493      0.33163     -0.058 
C3       C      0.438        0.49493      0.83163     -0.058 
C3       C      0.938        0.99493      0.83163     -0.058 
C3       C      0.934699     0.47948      0.335059    -0.058 
C3       C      0.434701     0.97948      0.335059    -0.058 
C3       C      0.434701     0.47948      0.835059    -0.058 
C3       C      0.934699     0.97948      0.835059    -0.058 
C3       C      0.00252056   0.453091     0.23623     -0.058 
C3       C      0.502519     0.953089     0.23623     -0.058 
C3       C      0.502519     0.453091     0.73623     -0.058 
C3       C      0.00252056   0.953089     0.73623     -0.058 
C1       C      0.97967      0.44264      0.226        0.496 
C1       C      0.47967      0.94264      0.226        0.496 
C1       C      0.47967      0.44264      0.726        0.496 
C1       C      0.97967      0.94264      0.726        0.496 
C2       C      0.9906       0.44264      0.23755     -0.07  
C2       C      0.4906       0.94264      0.23755     -0.07  
C2       C      0.4906       0.44264      0.73755     -0.07  
C2       C      0.9906       0.94264      0.73755     -0.07  
C3       C      0.993679     0.42859      0.24506     -0.058 
C3       C      0.493679     0.92859      0.24506     -0.058 
C3       C      0.493679     0.42859      0.74506     -0.058 
C3       C      0.993679     0.92859      0.74506     -0.058 
C3       C      0.80231      0.29077      0.0718394   -0.058 
C3       C      0.30231      0.79077      0.0718394   -0.058 
C3       C      0.30231      0.29077      0.571839    -0.058 
C3       C      0.80231      0.79077      0.571839    -0.058 
C1       C      0.8113       0.26544      0.0802203    0.496 
C1       C      0.3113       0.76544      0.0802203    0.496 
C1       C      0.3113       0.26544      0.58022      0.496 
C1       C      0.8113       0.76544      0.58022      0.496 
C2       C      0.80018      0.277409     0.0811104   -0.07  
C2       C      0.30018      0.777409     0.0811104   -0.07  
C2       C      0.30018      0.277409     0.58111     -0.07  
C2       C      0.80018      0.777409     0.58111     -0.07  
C3       C      0.78933      0.278029     0.0928997   -0.058 
C3       C      0.28933      0.778029     0.0928997   -0.058 
C3       C      0.28933      0.278029     0.5929      -0.058 
C3       C      0.78933      0.778029     0.5929      -0.058 
C3       C      0.80816      0.35653      0.09204     -0.058 
C3       C      0.30816      0.85653      0.09204     -0.058 
C3       C      0.30816      0.35653      0.59204     -0.058 
C3       C      0.80816      0.85653      0.59204     -0.058 
C1       C      0.78092      0.36156      0.0967098    0.496 
C1       C      0.28092      0.86156      0.0967098    0.496 
C1       C      0.28092      0.36156      0.59671      0.496 
C1       C      0.78092      0.86156      0.59671      0.496 
C2       C      0.79596      0.36496      0.0989096   -0.07  
C2       C      0.29596      0.86496      0.0989096   -0.07  
C2       C      0.29596      0.36496      0.59891     -0.07  
C2       C      0.79596      0.86496      0.59891     -0.07  
C3       C      0.8231       0.36117      0.0947203   -0.058 
C3       C      0.3231       0.86117      0.0947203   -0.058 
C3       C      0.3231       0.36117      0.59472     -0.058 
C3       C      0.8231       0.86117      0.59472     -0.058 
C1       C      0.840709     0.37691      0.110299     0.496 
C1       C      0.34071      0.87691      0.110299     0.496 
C1       C      0.34071      0.37691      0.610299     0.496 
C1       C      0.840709     0.87691      0.610299     0.496 
C2       C      0.82589      0.3705       0.10769     -0.07  
C2       C      0.32589      0.8705       0.10769     -0.07  
C2       C      0.32589      0.3705       0.60769     -0.07  
C2       C      0.82589      0.8705       0.60769     -0.07  
C3       C      0.798359     0.37254      0.11224     -0.058 
C3       C      0.298361     0.872539     0.11224     -0.058 
C3       C      0.298361     0.37254      0.612239    -0.058 
C3       C      0.798359     0.872539     0.612239    -0.058 
C3       C      0.8135       0.37689      0.11582     -0.058 
C3       C      0.3135       0.87689      0.11582     -0.058 
C3       C      0.3135       0.37689      0.61582     -0.058 
C3       C      0.8135       0.87689      0.61582     -0.058 
C3       C      0.82678      0.34529      0.17951     -0.058 
C3       C      0.32678      0.84529      0.17951     -0.058 
C3       C      0.32678      0.34529      0.67951     -0.058 
C3       C      0.82678      0.84529      0.67951     -0.058 
C3       C      0.83485      0.35355      0.16801     -0.058 
C3       C      0.33485      0.85355      0.16801     -0.058 
C3       C      0.33485      0.35355      0.66801     -0.058 
C3       C      0.83485      0.85355      0.66801     -0.058 
C3       C      0.76355      0.304289     0.15706     -0.058 
C3       C      0.26355      0.804289     0.15706     -0.058 
C3       C      0.26355      0.304289     0.65706     -0.058 
C3       C      0.76355      0.804289     0.65706     -0.058 
C1       C      0.77464      0.30984      0.181299     0.496 
C1       C      0.27464      0.80984      0.181299     0.496 
C1       C      0.27464      0.30984      0.681299     0.496 
C1       C      0.77464      0.80984      0.681299     0.496 
C2       C      0.76807      0.31482      0.16789     -0.07  
C2       C      0.26807      0.81482      0.16789     -0.07  
C2       C      0.26807      0.31482      0.66789     -0.07  
C2       C      0.76807      0.81482      0.66789     -0.07  
C3       C      0.75617      0.309239     0.14422     -0.058 
C3       C      0.25617      0.809239     0.14422     -0.058 
C3       C      0.25617      0.309239     0.64422     -0.058 
C3       C      0.75617      0.809239     0.64422     -0.058 
C1       C      0.75095      0.33082      0.12747      0.496 
C1       C      0.25095      0.83082      0.12747      0.496 
C1       C      0.25095      0.33082      0.62747      0.496 
C1       C      0.75095      0.83082      0.62747      0.496 
C2       C      0.75489      0.32478      0.14175     -0.07  
C2       C      0.25489      0.82478      0.14175     -0.07  
C2       C      0.25489      0.32478      0.64175     -0.07  
C2       C      0.75489      0.82478      0.64175     -0.07  
C3       C      0.76846      0.33032      0.16484     -0.058 
C3       C      0.26846      0.83032      0.16484     -0.058 
C3       C      0.26846      0.33032      0.66484     -0.058 
C3       C      0.76846      0.83032      0.66484     -0.058 
C3       C      0.76171      0.33542      0.15158     -0.058 
C3       C      0.26171      0.83542      0.15158     -0.058 
C3       C      0.26171      0.33542      0.65158     -0.058 
C3       C      0.76171      0.83542      0.65158     -0.058 
H1       H      0.447495     0.000327448  0.3367       0.108 
H1       H      0.947495     0.500327     0.3367       0.108 
H1       H      0.947495     0.000327448  0.8367       0.108 
H1       H      0.447495     0.500327     0.8367       0.108 
H1       H      0.94121      0.473626     0.343313     0.108 
H1       H      0.44121      0.973626     0.343313     0.108 
H1       H      0.44121      0.473626     0.843313     0.108 
H1       H      0.94121      0.973626     0.843313     0.108 
H1       H      0.815441     0.348268     0.182218     0.108 
H1       H      0.315441     0.848268     0.182218     0.108 
H1       H      0.315441     0.348268     0.682218     0.108 
H1       H      0.815441     0.848268     0.682218     0.108 
H1       H      0.830635     0.364128     0.164125     0.108 
H1       H      0.330635     0.864128     0.164125     0.108 
H1       H      0.330635     0.364128     0.664125     0.108 
H1       H      0.830635     0.864128     0.664125     0.108 
H1       H      0.847624     0.3211       0.381832     0.108 
H1       H      0.347624     0.8211       0.381832     0.108 
H1       H      0.347624     0.3211       0.881832     0.108 
H1       H      0.847624     0.8211       0.881832     0.108 
H1       H      0.00284576   0.460699     0.226915     0.108 
H1       H      0.502846     0.960699     0.226915     0.108 
H1       H      0.502846     0.460699     0.726915     0.108 
H1       H      0.00284576   0.960699     0.726915     0.108 
H1       H      0.773812     0.337838     0.172561     0.108 
H1       H      0.273812     0.837838     0.172561     0.108 
H1       H      0.273812     0.337838     0.672561     0.108 
H1       H      0.773812     0.837838     0.672561     0.108 
H1       H      0.761723     0.347174     0.14895      0.108 
H1       H      0.261723     0.847174     0.14895      0.108 
H1       H      0.261723     0.347174     0.64895      0.108 
H1       H      0.761723     0.847174     0.64895      0.108 
H1       H      0.765797     0.292587     0.15874      0.108 
H1       H      0.265798     0.792587     0.15874      0.108 
H1       H      0.265798     0.292587     0.65874      0.108 
H1       H      0.765797     0.792587     0.65874      0.108 
H1       H      0.751598     0.301258     0.136449     0.108 
H1       H      0.251598     0.801258     0.136449     0.108 
H1       H      0.251598     0.301258     0.636449     0.108 
H1       H      0.751598     0.801258     0.636449     0.108 
H1       H      0.812261     0.291948     0.0651802    0.108 
H1       H      0.312261     0.791948     0.0651802    0.108 
H1       H      0.312261     0.291948     0.56518      0.108 
H1       H      0.812261     0.791948     0.56518      0.108 
H1       H      0.789666     0.269958     0.101816     0.108 
H1       H      0.289666     0.769958     0.101816     0.108 
H1       H      0.289666     0.269958     0.601816     0.108 
H1       H      0.789666     0.769958     0.601816     0.108 
H1       H      0.789099     0.374991     0.119519     0.108 
H1       H      0.289099     0.874991     0.119519     0.108 
H1       H      0.289099     0.374991     0.619519     0.108 
H1       H      0.789099     0.874991     0.619519     0.108 
H1       H      0.815533     0.384905     0.124561     0.108 
H1       H      0.315533     0.884905     0.124561     0.108 
H1       H      0.315533     0.384905     0.624561     0.108 
H1       H      0.815533     0.884905     0.624561     0.108 
H1       H      0.805729     0.347        0.0850983    0.108 
H1       H      0.305729     0.847        0.0850983    0.108 
H1       H      0.305729     0.347        0.585098     0.108 
H1       H      0.805729     0.847        0.585098     0.108 
H1       H      0.831891     0.357758     0.0872475    0.108 
H1       H      0.331891     0.857758     0.0872475    0.108 
H1       H      0.331891     0.357758     0.587248     0.108 
H1       H      0.831891     0.857758     0.587248     0.108 
H1       H      0.987543     0.418685     0.242047     0.108 
H1       H      0.487543     0.918685     0.242047     0.108 
H1       H      0.487543     0.418685     0.742047     0.108 
H1       H      0.987543     0.918685     0.742047     0.108 
Cr2      Cr     0.17799      0.34473      0.48709      1.35  
Cr2      Cr     0.67799      0.84473      0.48709      1.35  
Cr2      Cr     0.67799      0.34473      0.98709      1.35  
Cr2      Cr     0.17799      0.84473      0.98709      1.35  
Cr1      Cr     0.0424603    0.0728004    0.29154      1.619 
Cr1      Cr     0.54246      0.5728       0.29154      1.619 
Cr1      Cr     0.54246      0.0728004    0.79154      1.619 
Cr1      Cr     0.0424603    0.5728       0.79154      1.619 
O3       O      0.15982      0.10869      0.0696396   -0.438 
O3       O      0.65982      0.60869      0.0696396   -0.438 
O3       O      0.65982      0.10869      0.56964     -0.438 
O3       O      0.15982      0.60869      0.56964     -0.438 
O2       O      0.0558699    0.0738998    0.27354     -0.574 
O2       O      0.55587      0.5739       0.27354     -0.574 
O2       O      0.55587      0.0738998    0.77354     -0.574 
O2       O      0.0558699    0.5739       0.77354     -0.574 
O3       O      0.0726305    0.08886      0.1993      -0.438 
O3       O      0.572629     0.58886      0.1993      -0.438 
O3       O      0.572629     0.08886      0.6993      -0.438 
O3       O      0.0726305    0.58886      0.6993      -0.438 
O3       O      0.52416      0.471219     0.17932     -0.438 
O3       O      0.0241603    0.971219     0.17932     -0.438 
O3       O      0.0241603    0.471219     0.67932     -0.438 
O3       O      0.52416      0.971219     0.67932     -0.438 
O2       O      0.52195      0.46763      0.20477     -0.574 
O2       O      0.0219503    0.96763      0.20477     -0.574 
O2       O      0.0219503    0.46763      0.70477     -0.574 
O2       O      0.52195      0.96763      0.70477     -0.574 
O2       O      0.67561      0.327009     0.0195603   -0.574 
O2       O      0.17561      0.827009     0.0195603   -0.574 
O2       O      0.17561      0.327009     0.51956     -0.574 
O2       O      0.67561      0.827009     0.51956     -0.574 
O3       O      0.69003      0.33776      0.00307981  -0.438 
O3       O      0.19003      0.83776      0.00307981  -0.438 
O3       O      0.19003      0.33776      0.50308     -0.438 
O3       O      0.69003      0.83776      0.50308     -0.438 
O2       O      0.72279      0.33758      0.10124     -0.574 
O2       O      0.22279      0.83758      0.10124     -0.574 
O2       O      0.22279      0.33758      0.60124     -0.574 
O2       O      0.72279      0.83758      0.60124     -0.574 
O2       O      0.72747      0.35774      0.11549     -0.574 
O2       O      0.22747      0.85774      0.11549     -0.574 
O2       O      0.22747      0.35774      0.61549     -0.574 
O2       O      0.72747      0.85774      0.61549     -0.574 
O2       O      0.64811      0.35125      0.12448     -0.574 
O2       O      0.14811      0.85125      0.12448     -0.574 
O2       O      0.14811      0.35125      0.62448     -0.574 
O2       O      0.64811      0.85125      0.62448     -0.574 
O3       O      0.65693      0.37292      0.13369     -0.438 
O3       O      0.15693      0.87292      0.13369     -0.438 
O3       O      0.15693      0.37292      0.63369     -0.438 
O3       O      0.65693      0.87292      0.63369     -0.438 
O3       O      0.69089      0.44362      0.0780497   -0.438 
O3       O      0.19089      0.94362      0.0780497   -0.438 
O3       O      0.19089      0.44362      0.57805     -0.438 
O3       O      0.69089      0.94362      0.57805     -0.438 
O3       O      0.64622      0.39839      0.120559    -0.438 
O3       O      0.14622      0.89839      0.120559    -0.438 
O3       O      0.14622      0.39839      0.620559    -0.438 
O3       O      0.64622      0.89839      0.620559    -0.438 
O2       O      0.72624      0.435231     0.0462096   -0.574 
O2       O      0.22624      0.935229     0.0462096   -0.574 
O2       O      0.22624      0.435231     0.54621     -0.574 
O2       O      0.72624      0.935229     0.54621     -0.574 
O3       O      0.71912      0.43927      0.0694505   -0.438 
O3       O      0.21912      0.93927      0.0694505   -0.438 
O3       O      0.21912      0.43927      0.569449    -0.438 
O3       O      0.71912      0.93927      0.569449    -0.438 
O3       O      0.75664      0.36692      0.0727802   -0.438 
O3       O      0.25664      0.86692      0.0727802   -0.438 
O3       O      0.25664      0.36692      0.57278     -0.438 
O3       O      0.75664      0.86692      0.57278     -0.438 
O2       O      0.74662      0.37647      0.0952503   -0.574 
O2       O      0.24662      0.87647      0.0952503   -0.574 
O2       O      0.24662      0.37647      0.59525     -0.574 
O2       O      0.74662      0.87647      0.59525     -0.574 
F1       F      0.1975       0.3442       0.47474     -0.547 
F1       F      0.6975       0.8442       0.47474     -0.547 
F1       F      0.6975       0.3442       0.97474     -0.547 
F1       F      0.1975       0.8442       0.97474     -0.547 
C3       C      0.14071      0.1295       0.0693403   -0.058 
C3       C      0.64071      0.6295       0.0693403   -0.058 
C3       C      0.64071      0.1295       0.56934     -0.058 
C3       C      0.14071      0.6295       0.56934     -0.058 
C3       C      0.0620002    0.0816303    0.24493     -0.058 
C3       C      0.562        0.58163      0.24493     -0.058 
C3       C      0.562        0.0816303    0.74493     -0.058 
C3       C      0.0620002    0.58163      0.74493     -0.058 
C3       C      0.0652995    0.08506      0.22948     -0.058 
C3       C      0.565299     0.58506      0.22948     -0.058 
C3       C      0.565299     0.08506      0.72948     -0.058 
C3       C      0.0652995    0.58506      0.72948     -0.058 
C3       C      0.497479     0.48623      0.20309     -0.058 
C3       C      0.997479     0.98623      0.20309     -0.058 
C3       C      0.997479     0.48623      0.70309     -0.058 
C3       C      0.497479     0.98623      0.70309     -0.058 
C1       C      0.52033      0.476        0.19264      0.496 
C1       C      0.0203299    0.976        0.19264      0.496 
C1       C      0.0203299    0.476        0.69264      0.496 
C1       C      0.52033      0.976        0.69264      0.496 
C2       C      0.5094       0.48755      0.19264     -0.07  
C2       C      0.00940035   0.98755      0.19264     -0.07  
C2       C      0.00940035   0.48755      0.69264     -0.07  
C2       C      0.5094       0.98755      0.69264     -0.07  
C3       C      0.506319     0.49506      0.17859     -0.058 
C3       C      0.00632054   0.99506      0.17859     -0.058 
C3       C      0.00632054   0.49506      0.67859     -0.058 
C3       C      0.506319     0.99506      0.67859     -0.058 
C3       C      0.69769      0.32184      0.0407701   -0.058 
C3       C      0.19769      0.82184      0.0407701   -0.058 
C3       C      0.19769      0.32184      0.54077     -0.058 
C3       C      0.69769      0.82184      0.54077     -0.058 
C1       C      0.6887       0.33022      0.0154396    0.496 
C1       C      0.1887       0.83022      0.0154396    0.496 
C1       C      0.1887       0.33022      0.51544      0.496 
C1       C      0.6887       0.83022      0.51544      0.496 
C2       C      0.69982      0.33111      0.02741     -0.07  
C2       C      0.19982      0.83111      0.02741     -0.07  
C2       C      0.19982      0.33111      0.52741     -0.07  
C2       C      0.69982      0.83111      0.52741     -0.07  
C3       C      0.71067      0.3429       0.02803     -0.058 
C3       C      0.21067      0.8429       0.02803     -0.058 
C3       C      0.21067      0.3429       0.52803     -0.058 
C3       C      0.71067      0.8429       0.52803     -0.058 
C3       C      0.69184      0.342039     0.10653     -0.058 
C3       C      0.19184      0.842039     0.10653     -0.058 
C3       C      0.19184      0.342039     0.60653     -0.058 
C3       C      0.69184      0.842039     0.60653     -0.058 
C1       C      0.71908      0.34671      0.11156      0.496 
C1       C      0.21908      0.84671      0.11156      0.496 
C1       C      0.21908      0.34671      0.61156      0.496 
C1       C      0.71908      0.84671      0.61156      0.496 
C2       C      0.70404      0.34891      0.11496     -0.07  
C2       C      0.20404      0.84891      0.11496     -0.07  
C2       C      0.20404      0.34891      0.61496     -0.07  
C2       C      0.70404      0.84891      0.61496     -0.07  
C3       C      0.6769       0.34472      0.11117     -0.058 
C3       C      0.1769       0.84472      0.11117     -0.058 
C3       C      0.1769       0.34472      0.61117     -0.058 
C3       C      0.6769       0.84472      0.61117     -0.058 
C1       C      0.65929      0.3603       0.12691      0.496 
C1       C      0.15929      0.8603       0.12691      0.496 
C1       C      0.15929      0.3603       0.62691      0.496 
C1       C      0.65929      0.8603       0.62691      0.496 
C2       C      0.67411      0.357689     0.1205      -0.07  
C2       C      0.17411      0.857689     0.1205      -0.07  
C2       C      0.17411      0.357689     0.6205      -0.07  
C2       C      0.67411      0.857689     0.6205      -0.07  
C3       C      0.701639     0.36224      0.12254     -0.058 
C3       C      0.201639     0.86224      0.12254     -0.058 
C3       C      0.201639     0.36224      0.62254     -0.058 
C3       C      0.701639     0.86224      0.62254     -0.058 
C3       C      0.6865       0.36582      0.12689     -0.058 
C3       C      0.1865       0.865819     0.12689     -0.058 
C3       C      0.1865       0.36582      0.62689     -0.058 
C3       C      0.6865       0.865819     0.62689     -0.058 
C3       C      0.67322      0.42951      0.0952897   -0.058 
C3       C      0.17322      0.92951      0.0952897   -0.058 
C3       C      0.17322      0.42951      0.59529     -0.058 
C3       C      0.67322      0.92951      0.59529     -0.058 
C3       C      0.66515      0.41801      0.10355     -0.058 
C3       C      0.16515      0.91801      0.10355     -0.058 
C3       C      0.16515      0.41801      0.60355     -0.058 
C3       C      0.66515      0.91801      0.60355     -0.058 
C3       C      0.73645      0.40706      0.05429     -0.058 
C3       C      0.23645      0.90706      0.05429     -0.058 
C3       C      0.23645      0.40706      0.55429     -0.058 
C3       C      0.73645      0.90706      0.55429     -0.058 
C1       C      0.72536      0.4313       0.0598398    0.496 
C1       C      0.22536      0.9313       0.0598398    0.496 
C1       C      0.22536      0.4313       0.55984      0.496 
C1       C      0.72536      0.9313       0.55984      0.496 
C2       C      0.73193      0.41789      0.0648201   -0.07  
C2       C      0.23193      0.91789      0.0648201   -0.07  
C2       C      0.23193      0.41789      0.56482     -0.07  
C2       C      0.73193      0.91789      0.56482     -0.07  
C3       C      0.74383      0.39422      0.05924     -0.058 
C3       C      0.24383      0.89422      0.05924     -0.058 
C3       C      0.24383      0.39422      0.55924     -0.058 
C3       C      0.74383      0.89422      0.55924     -0.058 
C1       C      0.74905      0.37747      0.0808201    0.496 
C1       C      0.24905      0.87747      0.0808201    0.496 
C1       C      0.24905      0.37747      0.58082      0.496 
C1       C      0.74905      0.87747      0.58082      0.496 
C2       C      0.74511      0.39175      0.0747797   -0.07  
C2       C      0.24511      0.89175      0.0747797   -0.07  
C2       C      0.24511      0.39175      0.57478     -0.07  
C2       C      0.74511      0.89175      0.57478     -0.07  
C3       C      0.73154      0.41484      0.0803205   -0.058 
C3       C      0.23154      0.91484      0.0803205   -0.058 
C3       C      0.23154      0.41484      0.58032     -0.058 
C3       C      0.73154      0.91484      0.58032     -0.058 
C3       C      0.73829      0.40158      0.0854201   -0.058 
C3       C      0.23829      0.90158      0.0854201   -0.058 
C3       C      0.23829      0.40158      0.58542     -0.058 
C3       C      0.73829      0.90158      0.58542     -0.058 
H1       H      0.0525054    0.0867006    0.250328     0.108 
H1       H      0.552505     0.586701     0.250328     0.108 
H1       H      0.552505     0.0867006    0.750327     0.108 
H1       H      0.0525054    0.586701     0.750327     0.108 
H1       H      0.0587888    0.0933138    0.223627     0.108 
H1       H      0.558789     0.593314     0.223627     0.108 
H1       H      0.558789     0.0933138    0.723627     0.108 
H1       H      0.0587888    0.593314     0.723627     0.108 
H1       H      0.684559     0.432217     0.0982682    0.108 
H1       H      0.184559     0.932217     0.0982682    0.108 
H1       H      0.184559     0.432217     0.598268     0.108 
H1       H      0.684559     0.932217     0.598268     0.108 
H1       H      0.669365     0.414125     0.114129     0.108 
H1       H      0.169365     0.914125     0.114129     0.108 
H1       H      0.169365     0.414125     0.614129     0.108 
H1       H      0.669365     0.914125     0.614129     0.108 
H1       H      0.152376     0.131832     0.071099     0.108 
H1       H      0.652376     0.631832     0.071099     0.108 
H1       H      0.652376     0.131832     0.571099     0.108 
H1       H      0.152376     0.631832     0.571099     0.108 
H1       H      0.497154     0.476915     0.210699     0.108 
H1       H      0.997154     0.976915     0.210699     0.108 
H1       H      0.997154     0.476915     0.710699     0.108 
H1       H      0.497154     0.976915     0.710699     0.108 
H1       H      0.726188     0.42256      0.0878372    0.108 
H1       H      0.226188     0.92256      0.0878372    0.108 
H1       H      0.226188     0.42256      0.587837     0.108 
H1       H      0.726188     0.92256      0.587837     0.108 
H1       H      0.738275     0.39895      0.0971745    0.108 
H1       H      0.238275     0.89895      0.0971745    0.108 
H1       H      0.238275     0.39895      0.597174     0.108 
H1       H      0.738275     0.89895      0.597174     0.108 
H1       H      0.734202     0.40874      0.0425863    0.108 
H1       H      0.234202     0.90874      0.0425863    0.108 
H1       H      0.234202     0.40874      0.542586     0.108 
H1       H      0.734202     0.90874      0.542586     0.108 
H1       H      0.748402     0.386449     0.0512586    0.108 
H1       H      0.248402     0.886449     0.0512586    0.108 
H1       H      0.248402     0.386449     0.551259     0.108 
H1       H      0.748402     0.886449     0.551259     0.108 
H1       H      0.687738     0.31518      0.0419471    0.108 
H1       H      0.187739     0.81518      0.0419471    0.108 
H1       H      0.187739     0.31518      0.541947     0.108 
H1       H      0.687738     0.81518      0.541947     0.108 
H1       H      0.710333     0.351816     0.0199575    0.108 
H1       H      0.210333     0.851816     0.0199575    0.108 
H1       H      0.210333     0.351816     0.519957     0.108 
H1       H      0.710333     0.851816     0.519957     0.108 
H1       H      0.710901     0.369518     0.124991     0.108 
H1       H      0.210901     0.869518     0.124991     0.108 
H1       H      0.210901     0.369518     0.624991     0.108 
H1       H      0.710901     0.869518     0.624991     0.108 
H1       H      0.684467     0.37456      0.134905     0.108 
H1       H      0.184467     0.87456      0.134905     0.108 
H1       H      0.184467     0.37456      0.634905     0.108 
H1       H      0.684467     0.87456      0.634905     0.108 
H1       H      0.69427      0.335099     0.0970001    0.108 
H1       H      0.194271     0.835099     0.0970001    0.108 
H1       H      0.194271     0.335099     0.597        0.108 
H1       H      0.69427      0.835099     0.597        0.108 
H1       H      0.668108     0.337247     0.107759     0.108 
H1       H      0.168108     0.837247     0.107759     0.108 
H1       H      0.168108     0.337247     0.607759     0.108 
H1       H      0.668108     0.837247     0.607759     0.108 
H1       H      0.512457     0.492047     0.168684     0.108 
H1       H      0.0124565    0.992047     0.168684     0.108 
H1       H      0.0124565    0.492047     0.668684     0.108 
H1       H      0.512457     0.992047     0.668684     0.108 
Cr2      Cr     0.57201      0.40527      0.48709      1.35  
Cr2      Cr     0.0720105    0.90527      0.48709      1.35  
Cr2      Cr     0.0720105    0.40527      0.98709      1.35  
Cr2      Cr     0.57201      0.90527      0.98709      1.35  
Cr1      Cr     0.20754      0.1772       0.29154      1.619 
Cr1      Cr     0.70754      0.6772       0.29154      1.619 
Cr1      Cr     0.70754      0.1772       0.79154      1.619 
Cr1      Cr     0.20754      0.6772       0.79154      1.619 
O2       O      0.0901799    0.14131      0.0696396   -0.574 
O2       O      0.59018      0.64131      0.0696396   -0.574 
O2       O      0.59018      0.14131      0.56964     -0.574 
O2       O      0.0901799    0.64131      0.56964     -0.574 
O2       O      0.19413      0.1761       0.27354     -0.574 
O2       O      0.69413      0.6761       0.27354     -0.574 
O2       O      0.69413      0.1761       0.77354     -0.574 
O2       O      0.19413      0.6761       0.77354     -0.574 
O3       O      0.17737      0.161139     0.1993      -0.438 
O3       O      0.67737      0.661139     0.1993      -0.438 
O3       O      0.67737      0.161139     0.6993      -0.438 
O3       O      0.17737      0.661139     0.6993      -0.438 
O2       O      0.22584      0.27878      0.17932     -0.574 
O2       O      0.72584      0.77878      0.17932     -0.574 
O2       O      0.72584      0.27878      0.67932     -0.574 
O2       O      0.22584      0.77878      0.67932     -0.574 
O2       O      0.22805      0.28237      0.20477     -0.574 
O2       O      0.72805      0.78237      0.20477     -0.574 
O2       O      0.72805      0.28237      0.70477     -0.574 
O2       O      0.22805      0.78237      0.70477     -0.574 
O2       O      0.0743904    0.42299      0.0195603   -0.574 
O2       O      0.57439      0.92299      0.0195603   -0.574 
O2       O      0.57439      0.42299      0.51956     -0.574 
O2       O      0.0743904    0.92299      0.51956     -0.574 
O3       O      0.0599703    0.41224      0.00307981  -0.438 
O3       O      0.55997      0.912239     0.00307981  -0.438 
O3       O      0.55997      0.41224      0.50308     -0.438 
O3       O      0.0599703    0.912239     0.50308     -0.438 
O3       O      0.0272097    0.412419     0.10124     -0.438 
O3       O      0.52721      0.912419     0.10124     -0.438 
O3       O      0.52721      0.412419     0.60124     -0.438 
O3       O      0.0272097    0.912419     0.60124     -0.438 
O2       O      0.0225298    0.392259     0.11549     -0.574 
O2       O      0.52253      0.892259     0.11549     -0.574 
O2       O      0.52253      0.392259     0.61549     -0.574 
O2       O      0.0225298    0.892259     0.61549     -0.574 
O2       O      0.10189      0.39875      0.12448     -0.574 
O2       O      0.60189      0.89875      0.12448     -0.574 
O2       O      0.60189      0.39875      0.62448     -0.574 
O2       O      0.10189      0.89875      0.62448     -0.574 
O3       O      0.0930696    0.37708      0.13369     -0.438 
O3       O      0.59307      0.87708      0.13369     -0.438 
O3       O      0.59307      0.37708      0.63369     -0.438 
O3       O      0.0930696    0.87708      0.63369     -0.438 
O2       O      0.0591095    0.30638      0.0780497   -0.574 
O2       O      0.559109     0.80638      0.0780497   -0.574 
O2       O      0.559109     0.30638      0.57805     -0.574 
O2       O      0.0591095    0.80638      0.57805     -0.574 
O3       O      0.10378      0.35161      0.120559    -0.438 
O3       O      0.60378      0.85161      0.120559    -0.438 
O3       O      0.60378      0.35161      0.620559    -0.438 
O3       O      0.10378      0.85161      0.620559    -0.438 
O2       O      0.0237597    0.31477      0.0462096   -0.574 
O2       O      0.52376      0.81477      0.0462096   -0.574 
O2       O      0.52376      0.31477      0.54621     -0.574 
O2       O      0.0237597    0.81477      0.54621     -0.574 
O2       O      0.0308803    0.31073      0.0694505   -0.574 
O2       O      0.53088      0.81073      0.0694505   -0.574 
O2       O      0.53088      0.31073      0.569449    -0.574 
O2       O      0.0308803    0.81073      0.569449    -0.574 
O2       O      0.99336      0.38308      0.0727802   -0.574 
O2       O      0.49336      0.88308      0.0727802   -0.574 
O2       O      0.49336      0.38308      0.57278     -0.574 
O2       O      0.99336      0.88308      0.57278     -0.574 
O2       O      0.00338026   0.37353      0.0952503   -0.574 
O2       O      0.50338      0.87353      0.0952503   -0.574 
O2       O      0.50338      0.37353      0.59525     -0.574 
O2       O      0.00338026   0.87353      0.59525     -0.574 
F1       F      0.5525       0.4058       0.47474     -0.547 
F1       F      0.0524997    0.9058       0.47474     -0.547 
F1       F      0.0524997    0.4058       0.97474     -0.547 
F1       F      0.5525       0.9058       0.97474     -0.547 
C3       C      0.10929      0.1205       0.0693403   -0.058 
C3       C      0.60929      0.6205       0.0693403   -0.058 
C3       C      0.60929      0.1205       0.56934     -0.058 
C3       C      0.10929      0.6205       0.56934     -0.058 
C3       C      0.188        0.16837      0.24493     -0.058 
C3       C      0.688        0.66837      0.24493     -0.058 
C3       C      0.688        0.16837      0.74493     -0.058 
C3       C      0.188        0.66837      0.74493     -0.058 
C3       C      0.1847       0.164941     0.22948     -0.058 
C3       C      0.6847       0.664939     0.22948     -0.058 
C3       C      0.6847       0.164941     0.72948     -0.058 
C3       C      0.1847       0.664939     0.72948     -0.058 
C3       C      0.25252      0.26377      0.20309     -0.058 
C3       C      0.75252      0.76377      0.20309     -0.058 
C3       C      0.75252      0.26377      0.70309     -0.058 
C3       C      0.25252      0.76377      0.70309     -0.058 
C1       C      0.22967      0.274        0.19264      0.496 
C1       C      0.72967      0.774        0.19264      0.496 
C1       C      0.72967      0.274        0.69264      0.496 
C1       C      0.22967      0.774        0.69264      0.496 
C2       C      0.2406       0.26245      0.19264     -0.07  
C2       C      0.7406       0.76245      0.19264     -0.07  
C2       C      0.7406       0.26245      0.69264     -0.07  
C2       C      0.2406       0.76245      0.69264     -0.07  
C3       C      0.24368      0.25494      0.17859     -0.058 
C3       C      0.74368      0.75494      0.17859     -0.058 
C3       C      0.74368      0.25494      0.67859     -0.058 
C3       C      0.24368      0.75494      0.67859     -0.058 
C3       C      0.0523096    0.428159     0.0407701   -0.058 
C3       C      0.55231      0.928159     0.0407701   -0.058 
C3       C      0.55231      0.428159     0.54077     -0.058 
C3       C      0.0523096    0.928159     0.54077     -0.058 
C1       C      0.0613003    0.41978      0.0154396    0.496 
C1       C      0.5613       0.91978      0.0154396    0.496 
C1       C      0.5613       0.41978      0.51544      0.496 
C1       C      0.0613003    0.91978      0.51544      0.496 
C2       C      0.0501795    0.41889      0.02741     -0.07  
C2       C      0.550179     0.91889      0.02741     -0.07  
C2       C      0.550179     0.41889      0.52741     -0.07  
C2       C      0.0501795    0.91889      0.52741     -0.07  
C3       C      0.0393298    0.4071       0.02803     -0.058 
C3       C      0.53933      0.9071       0.02803     -0.058 
C3       C      0.53933      0.4071       0.52803     -0.058 
C3       C      0.0393298    0.9071       0.52803     -0.058 
C3       C      0.0581598    0.40796      0.10653     -0.058 
C3       C      0.55816      0.90796      0.10653     -0.058 
C3       C      0.55816      0.40796      0.60653     -0.058 
C3       C      0.0581598    0.90796      0.60653     -0.058 
C1       C      0.0309197    0.40329      0.11156      0.496 
C1       C      0.53092      0.90329      0.11156      0.496 
C1       C      0.53092      0.40329      0.61156      0.496 
C1       C      0.0309197    0.90329      0.61156      0.496 
C2       C      0.0459598    0.40109      0.11496     -0.07  
C2       C      0.54596      0.90109      0.11496     -0.07  
C2       C      0.54596      0.40109      0.61496     -0.07  
C2       C      0.0459598    0.90109      0.61496     -0.07  
C3       C      0.0730997    0.40528      0.11117     -0.058 
C3       C      0.5731       0.90528      0.11117     -0.058 
C3       C      0.5731       0.40528      0.61117     -0.058 
C3       C      0.0730997    0.90528      0.61117     -0.058 
C1       C      0.0907099    0.389699     0.12691      0.496 
C1       C      0.59071      0.889699     0.12691      0.496 
C1       C      0.59071      0.389699     0.62691      0.496 
C1       C      0.0907099    0.889699     0.62691      0.496 
C2       C      0.0758904    0.39231      0.1205      -0.07  
C2       C      0.57589      0.89231      0.1205      -0.07  
C2       C      0.57589      0.39231      0.6205      -0.07  
C2       C      0.0758904    0.89231      0.6205      -0.07  
C3       C      0.0483599    0.38776      0.12254     -0.058 
C3       C      0.54836      0.88776      0.12254     -0.058 
C3       C      0.54836      0.38776      0.62254     -0.058 
C3       C      0.0483599    0.88776      0.62254     -0.058 
C3       C      0.0635002    0.38418      0.12689     -0.058 
C3       C      0.5635       0.88418      0.12689     -0.058 
C3       C      0.5635       0.38418      0.62689     -0.058 
C3       C      0.0635002    0.88418      0.62689     -0.058 
C3       C      0.0767804    0.32049      0.0952897   -0.058 
C3       C      0.57678      0.82049      0.0952897   -0.058 
C3       C      0.57678      0.32049      0.59529     -0.058 
C3       C      0.0767804    0.82049      0.59529     -0.058 
C3       C      0.0848496    0.33199      0.10355     -0.058 
C3       C      0.58485      0.83199      0.10355     -0.058 
C3       C      0.58485      0.33199      0.60355     -0.058 
C3       C      0.0848496    0.83199      0.60355     -0.058 
C3       C      0.0135503    0.34294      0.05429     -0.058 
C3       C      0.51355      0.84294      0.05429     -0.058 
C3       C      0.51355      0.34294      0.55429     -0.058 
C3       C      0.0135503    0.84294      0.55429     -0.058 
C1       C      0.0246396    0.318699     0.0598398    0.496 
C1       C      0.52464      0.818699     0.0598398    0.496 
C1       C      0.52464      0.318699     0.55984      0.496 
C1       C      0.0246396    0.818699     0.55984      0.496 
C2       C      0.0180704    0.33211      0.0648201   -0.07  
C2       C      0.51807      0.83211      0.0648201   -0.07  
C2       C      0.51807      0.33211      0.56482     -0.07  
C2       C      0.0180704    0.83211      0.56482     -0.07  
C3       C      0.00616976   0.35578      0.05924     -0.058 
C3       C      0.50617      0.85578      0.05924     -0.058 
C3       C      0.50617      0.35578      0.55924     -0.058 
C3       C      0.00616976   0.85578      0.55924     -0.058 
C1       C      0.000949712  0.37253      0.0808201    0.496 
C1       C      0.50095      0.87253      0.0808201    0.496 
C1       C      0.50095      0.37253      0.58082      0.496 
C1       C      0.000949712  0.87253      0.58082      0.496 
C2       C      0.00489034   0.35825      0.0747797   -0.07  
C2       C      0.50489      0.85825      0.0747797   -0.07  
C2       C      0.50489      0.35825      0.57478     -0.07  
C2       C      0.00489034   0.85825      0.57478     -0.07  
C3       C      0.0184598    0.33516      0.0803205   -0.058 
C3       C      0.51846      0.83516      0.0803205   -0.058 
C3       C      0.51846      0.33516      0.58032     -0.058 
C3       C      0.0184598    0.83516      0.58032     -0.058 
C3       C      0.0117105    0.34842      0.0854201   -0.058 
C3       C      0.51171      0.84842      0.0854201   -0.058 
C3       C      0.51171      0.34842      0.58542     -0.058 
C3       C      0.0117105    0.84842      0.58542     -0.058 
H1       H      0.197495     0.1633       0.250328     0.108 
H1       H      0.697495     0.6633       0.250328     0.108 
H1       H      0.697495     0.1633       0.750327     0.108 
H1       H      0.197495     0.6633       0.750327     0.108 
H1       H      0.191211     0.156687     0.223627     0.108 
H1       H      0.691211     0.656687     0.223627     0.108 
H1       H      0.691211     0.156687     0.723627     0.108 
H1       H      0.191211     0.656687     0.723627     0.108 
H1       H      0.0654413    0.317782     0.0982682    0.108 
H1       H      0.565441     0.817782     0.0982682    0.108 
H1       H      0.565441     0.317782     0.598268     0.108 
H1       H      0.0654413    0.817782     0.598268     0.108 
H1       H      0.0806355    0.335875     0.114129     0.108 
H1       H      0.580636     0.835875     0.114129     0.108 
H1       H      0.580636     0.335875     0.614129     0.108 
H1       H      0.0806355    0.835875     0.614129     0.108 
H1       H      0.0976246    0.118168     0.071099     0.108 
H1       H      0.597625     0.618168     0.071099     0.108 
H1       H      0.597625     0.118168     0.571099     0.108 
H1       H      0.0976246    0.618168     0.571099     0.108 
H1       H      0.252846     0.273085     0.210699     0.108 
H1       H      0.752846     0.773084     0.210699     0.108 
H1       H      0.752846     0.273085     0.710699     0.108 
H1       H      0.252846     0.773084     0.710699     0.108 
H1       H      0.0238126    0.327439     0.0878372    0.108 
H1       H      0.523813     0.827439     0.0878372    0.108 
H1       H      0.523813     0.327439     0.587837     0.108 
H1       H      0.0238126    0.827439     0.587837     0.108 
H1       H      0.011724     0.35105      0.0971745    0.108 
H1       H      0.511724     0.85105      0.0971745    0.108 
H1       H      0.511724     0.35105      0.597174     0.108 
H1       H      0.011724     0.85105      0.597174     0.108 
H1       H      0.0157974    0.34126      0.0425863    0.108 
H1       H      0.515797     0.84126      0.0425863    0.108 
H1       H      0.515797     0.34126      0.542586     0.108 
H1       H      0.0157974    0.84126      0.542586     0.108 
H1       H      0.00159786   0.363551     0.0512586    0.108 
H1       H      0.501598     0.863551     0.0512586    0.108 
H1       H      0.501598     0.363551     0.551259     0.108 
H1       H      0.00159786   0.863551     0.551259     0.108 
H1       H      0.0622613    0.43482      0.0419471    0.108 
H1       H      0.562261     0.93482      0.0419471    0.108 
H1       H      0.562261     0.43482      0.541947     0.108 
H1       H      0.0622613    0.93482      0.541947     0.108 
H1       H      0.0396663    0.398184     0.0199575    0.108 
H1       H      0.539666     0.898184     0.0199575    0.108 
H1       H      0.539666     0.398184     0.519957     0.108 
H1       H      0.0396663    0.898184     0.519957     0.108 
H1       H      0.039098     0.380481     0.124991     0.108 
H1       H      0.539098     0.880481     0.124991     0.108 
H1       H      0.539098     0.380481     0.624991     0.108 
H1       H      0.039098     0.880481     0.624991     0.108 
H1       H      0.0655324    0.375439     0.134905     0.108 
H1       H      0.565532     0.875439     0.134905     0.108 
H1       H      0.565532     0.375439     0.634905     0.108 
H1       H      0.0655324    0.875439     0.634905     0.108 
H1       H      0.0557292    0.414902     0.0970001    0.108 
H1       H      0.555729     0.914902     0.0970001    0.108 
H1       H      0.555729     0.414902     0.597        0.108 
H1       H      0.0557292    0.914902     0.597        0.108 
H1       H      0.0818913    0.412752     0.107759     0.108 
H1       H      0.581891     0.912752     0.107759     0.108 
H1       H      0.581891     0.412752     0.607759     0.108 
H1       H      0.0818913    0.912752     0.607759     0.108 
H1       H      0.237544     0.257953     0.168684     0.108 
H1       H      0.737544     0.757953     0.168684     0.108 
H1       H      0.737544     0.257953     0.668684     0.108 
H1       H      0.237544     0.757953     0.668684     0.108 
Cr1      Cr     0.17799      0.40527      0.262909     1.619 
Cr1      Cr     0.67799      0.90527      0.262909     1.619 
Cr1      Cr     0.67799      0.40527      0.762909     1.619 
Cr1      Cr     0.17799      0.90527      0.762909     1.619 
Cr2      Cr     0.54246      0.1772       0.45846      1.35  
Cr2      Cr     0.0424603    0.6772       0.45846      1.35  
Cr2      Cr     0.0424603    0.1772       0.95846      1.35  
Cr2      Cr     0.54246      0.6772       0.95846      1.35  
O3       O      0.15982      0.14131      0.18036     -0.438 
O3       O      0.65982      0.64131      0.18036     -0.438 
O3       O      0.65982      0.14131      0.68036     -0.438 
O3       O      0.15982      0.64131      0.68036     -0.438 
O3       O      0.55587      0.1761       0.47646     -0.438 
O3       O      0.0558699    0.6761       0.47646     -0.438 
O3       O      0.0558699    0.1761       0.97646     -0.438 
O3       O      0.55587      0.6761       0.97646     -0.438 
O2       O      0.0726305    0.161139     0.0507005   -0.574 
O2       O      0.572629     0.661139     0.0507005   -0.574 
O2       O      0.572629     0.161139     0.5507      -0.574 
O2       O      0.0726305    0.661139     0.5507      -0.574 
O2       O      0.0241603    0.27878      0.0706804   -0.574 
O2       O      0.52416      0.77878      0.0706804   -0.574 
O2       O      0.52416      0.27878      0.57068     -0.574 
O2       O      0.0241603    0.77878      0.57068     -0.574 
O2       O      0.0219503    0.28237      0.0452295   -0.574 
O2       O      0.52195      0.78237      0.0452295   -0.574 
O2       O      0.52195      0.28237      0.545229    -0.574 
O2       O      0.0219503    0.78237      0.545229    -0.574 
O3       O      0.17561      0.42299      0.23044     -0.438 
O3       O      0.67561      0.92299      0.23044     -0.438 
O3       O      0.67561      0.42299      0.73044     -0.438 
O3       O      0.17561      0.92299      0.73044     -0.438 
O2       O      0.19003      0.41224      0.24692     -0.574 
O2       O      0.69003      0.912239     0.24692     -0.574 
O2       O      0.69003      0.41224      0.74692     -0.574 
O2       O      0.19003      0.912239     0.74692     -0.574 
O2       O      0.22279      0.412419     0.148759    -0.574 
O2       O      0.72279      0.912419     0.148759    -0.574 
O2       O      0.72279      0.412419     0.648759    -0.574 
O2       O      0.22279      0.912419     0.648759    -0.574 
O3       O      0.22747      0.392259     0.13451     -0.438 
O3       O      0.72747      0.892259     0.13451     -0.438 
O3       O      0.72747      0.392259     0.63451     -0.438 
O3       O      0.22747      0.892259     0.63451     -0.438 
O2       O      0.14811      0.39875      0.12552     -0.574 
O2       O      0.64811      0.89875      0.12552     -0.574 
O2       O      0.64811      0.39875      0.62552     -0.574 
O2       O      0.14811      0.89875      0.62552     -0.574 
O2       O      0.15693      0.37708      0.116311    -0.574 
O2       O      0.65693      0.87708      0.116311    -0.574 
O2       O      0.65693      0.37708      0.616309    -0.574 
O2       O      0.15693      0.87708      0.616309    -0.574 
O2       O      0.19089      0.30638      0.17195     -0.574 
O2       O      0.69089      0.80638      0.17195     -0.574 
O2       O      0.69089      0.30638      0.67195     -0.574 
O2       O      0.19089      0.80638      0.67195     -0.574 
O2       O      0.14622      0.35161      0.12944     -0.574 
O2       O      0.64622      0.85161      0.12944     -0.574 
O2       O      0.64622      0.35161      0.62944     -0.574 
O2       O      0.14622      0.85161      0.62944     -0.574 
O2       O      0.22624      0.31477      0.20379     -0.574 
O2       O      0.72624      0.81477      0.20379     -0.574 
O2       O      0.72624      0.31477      0.70379     -0.574 
O2       O      0.22624      0.81477      0.70379     -0.574 
O2       O      0.21912      0.31073      0.18055     -0.574 
O2       O      0.71912      0.81073      0.18055     -0.574 
O2       O      0.71912      0.31073      0.68055     -0.574 
O2       O      0.21912      0.81073      0.68055     -0.574 
O2       O      0.25664      0.38308      0.17722     -0.574 
O2       O      0.75664      0.88308      0.17722     -0.574 
O2       O      0.75664      0.38308      0.67722     -0.574 
O2       O      0.25664      0.88308      0.67722     -0.574 
O3       O      0.24662      0.37353      0.15475     -0.438 
O3       O      0.74662      0.87353      0.15475     -0.438 
O3       O      0.74662      0.37353      0.65475     -0.438 
O3       O      0.24662      0.87353      0.65475     -0.438 
F1       F      0.53873      0.15585      0.460869    -0.547 
F1       F      0.03873      0.65585      0.460869    -0.547 
F1       F      0.03873      0.15585      0.960869    -0.547 
F1       F      0.53873      0.65585      0.960869    -0.547 
C3       C      0.14071      0.1205       0.18066     -0.058 
C3       C      0.64071      0.6205       0.18066     -0.058 
C3       C      0.64071      0.1205       0.68066     -0.058 
C3       C      0.14071      0.6205       0.68066     -0.058 
C3       C      0.0620002    0.16837      0.00507038  -0.058 
C3       C      0.562        0.66837      0.00507038  -0.058 
C3       C      0.562        0.16837      0.50507     -0.058 
C3       C      0.0620002    0.66837      0.50507     -0.058 
C3       C      0.0652995    0.164941     0.0205201   -0.058 
C3       C      0.565299     0.664939     0.0205201   -0.058 
C3       C      0.565299     0.164941     0.52052     -0.058 
C3       C      0.0652995    0.664939     0.52052     -0.058 
C3       C      0.997479     0.26377      0.0469095   -0.058 
C3       C      0.497479     0.76377      0.0469095   -0.058 
C3       C      0.497479     0.26377      0.546909    -0.058 
C3       C      0.997479     0.76377      0.546909    -0.058 
C1       C      0.0203299    0.274        0.0573597    0.496 
C1       C      0.52033      0.774        0.0573597    0.496 
C1       C      0.52033      0.274        0.55736      0.496 
C1       C      0.0203299    0.774        0.55736      0.496 
C2       C      0.00940035   0.26245      0.0573597   -0.07  
C2       C      0.5094       0.76245      0.0573597   -0.07  
C2       C      0.5094       0.26245      0.55736     -0.07  
C2       C      0.00940035   0.76245      0.55736     -0.07  
C3       C      0.00632054   0.25494      0.0714096   -0.058 
C3       C      0.506319     0.75494      0.0714096   -0.058 
C3       C      0.506319     0.25494      0.57141     -0.058 
C3       C      0.00632054   0.75494      0.57141     -0.058 
C3       C      0.19769      0.428159     0.20923     -0.058 
C3       C      0.69769      0.928159     0.20923     -0.058 
C3       C      0.69769      0.428159     0.709229    -0.058 
C3       C      0.19769      0.928159     0.709229    -0.058 
C1       C      0.1887       0.41978      0.23456      0.496 
C1       C      0.6887       0.91978      0.23456      0.496 
C1       C      0.6887       0.41978      0.73456      0.496 
C1       C      0.1887       0.91978      0.73456      0.496 
C2       C      0.19982      0.41889      0.222589    -0.07  
C2       C      0.69982      0.91889      0.222589    -0.07  
C2       C      0.69982      0.41889      0.722589    -0.07  
C2       C      0.19982      0.91889      0.722589    -0.07  
C3       C      0.21067      0.4071       0.221969    -0.058 
C3       C      0.71067      0.9071       0.221969    -0.058 
C3       C      0.71067      0.4071       0.721969    -0.058 
C3       C      0.21067      0.9071       0.721969    -0.058 
C3       C      0.19184      0.40796      0.14347     -0.058 
C3       C      0.69184      0.90796      0.14347     -0.058 
C3       C      0.69184      0.40796      0.64347     -0.058 
C3       C      0.19184      0.90796      0.64347     -0.058 
C1       C      0.21908      0.40329      0.13844      0.496 
C1       C      0.71908      0.90329      0.13844      0.496 
C1       C      0.71908      0.40329      0.63844      0.496 
C1       C      0.21908      0.90329      0.63844      0.496 
C2       C      0.20404      0.40109      0.13504     -0.07  
C2       C      0.70404      0.90109      0.13504     -0.07  
C2       C      0.70404      0.40109      0.63504     -0.07  
C2       C      0.20404      0.90109      0.63504     -0.07  
C3       C      0.1769       0.40528      0.13883     -0.058 
C3       C      0.6769       0.90528      0.13883     -0.058 
C3       C      0.6769       0.40528      0.63883     -0.058 
C3       C      0.1769       0.90528      0.63883     -0.058 
C1       C      0.15929      0.389699     0.12309      0.496 
C1       C      0.65929      0.889699     0.12309      0.496 
C1       C      0.65929      0.389699     0.62309      0.496 
C1       C      0.15929      0.889699     0.62309      0.496 
C2       C      0.17411      0.39231      0.1295      -0.07  
C2       C      0.67411      0.89231      0.1295      -0.07  
C2       C      0.67411      0.39231      0.6295      -0.07  
C2       C      0.17411      0.89231      0.6295      -0.07  
C3       C      0.201639     0.38776      0.12746     -0.058 
C3       C      0.701639     0.88776      0.12746     -0.058 
C3       C      0.701639     0.38776      0.62746     -0.058 
C3       C      0.201639     0.88776      0.62746     -0.058 
C3       C      0.1865       0.38418      0.12311     -0.058 
C3       C      0.6865       0.88418      0.12311     -0.058 
C3       C      0.6865       0.38418      0.62311     -0.058 
C3       C      0.1865       0.88418      0.62311     -0.058 
C3       C      0.17322      0.32049      0.15471     -0.058 
C3       C      0.67322      0.82049      0.15471     -0.058 
C3       C      0.67322      0.32049      0.65471     -0.058 
C3       C      0.17322      0.82049      0.65471     -0.058 
C3       C      0.16515      0.33199      0.14645     -0.058 
C3       C      0.66515      0.83199      0.14645     -0.058 
C3       C      0.66515      0.33199      0.64645     -0.058 
C3       C      0.16515      0.83199      0.64645     -0.058 
C3       C      0.23645      0.34294      0.195709    -0.058 
C3       C      0.73645      0.84294      0.195709    -0.058 
C3       C      0.73645      0.34294      0.695709    -0.058 
C3       C      0.23645      0.84294      0.695709    -0.058 
C1       C      0.22536      0.318699     0.19016      0.496 
C1       C      0.72536      0.818699     0.19016      0.496 
C1       C      0.72536      0.318699     0.69016      0.496 
C1       C      0.22536      0.818699     0.69016      0.496 
C2       C      0.23193      0.33211      0.18518     -0.07  
C2       C      0.73193      0.83211      0.18518     -0.07  
C2       C      0.73193      0.33211      0.68518     -0.07  
C2       C      0.23193      0.83211      0.68518     -0.07  
C3       C      0.24383      0.35578      0.190759    -0.058 
C3       C      0.74383      0.85578      0.190759    -0.058 
C3       C      0.74383      0.35578      0.690759    -0.058 
C3       C      0.24383      0.85578      0.690759    -0.058 
C1       C      0.24905      0.37253      0.16918      0.496 
C1       C      0.74905      0.87253      0.16918      0.496 
C1       C      0.74905      0.37253      0.669179     0.496 
C1       C      0.24905      0.87253      0.669179     0.496 
C2       C      0.24511      0.35825      0.17522     -0.07  
C2       C      0.74511      0.85825      0.17522     -0.07  
C2       C      0.74511      0.35825      0.67522     -0.07  
C2       C      0.24511      0.85825      0.67522     -0.07  
C3       C      0.23154      0.33516      0.16968     -0.058 
C3       C      0.73154      0.83516      0.16968     -0.058 
C3       C      0.73154      0.33516      0.66968     -0.058 
C3       C      0.23154      0.83516      0.66968     -0.058 
C3       C      0.23829      0.34842      0.16458     -0.058 
C3       C      0.73829      0.84842      0.16458     -0.058 
C3       C      0.73829      0.34842      0.66458     -0.058 
C3       C      0.23829      0.84842      0.66458     -0.058 
H1       H      0.552505     0.1633       0.499673     0.108 
H1       H      0.0525054    0.6633       0.499673     0.108 
H1       H      0.0525054    0.1633       0.999673     0.108 
H1       H      0.552505     0.6633       0.999673     0.108 
H1       H      0.0587888    0.156687     0.0263737    0.108 
H1       H      0.558789     0.656687     0.0263737    0.108 
H1       H      0.558789     0.156687     0.526374     0.108 
H1       H      0.0587888    0.656687     0.526374     0.108 
H1       H      0.184559     0.317782     0.151732     0.108 
H1       H      0.684559     0.817782     0.151732     0.108 
H1       H      0.684559     0.317782     0.651732     0.108 
H1       H      0.184559     0.817782     0.651732     0.108 
H1       H      0.169365     0.335875     0.135871     0.108 
H1       H      0.669365     0.835875     0.135871     0.108 
H1       H      0.669365     0.335875     0.635871     0.108 
H1       H      0.169365     0.835875     0.635871     0.108 
H1       H      0.152376     0.118168     0.1789       0.108 
H1       H      0.652376     0.618168     0.1789       0.108 
H1       H      0.652376     0.118168     0.6789       0.108 
H1       H      0.152376     0.618168     0.6789       0.108 
H1       H      0.997154     0.273085     0.0393005    0.108 
H1       H      0.497154     0.773084     0.0393005    0.108 
H1       H      0.497154     0.273085     0.539301     0.108 
H1       H      0.997154     0.773084     0.539301     0.108 
H1       H      0.226188     0.327439     0.162162     0.108 
H1       H      0.726188     0.827439     0.162162     0.108 
H1       H      0.726188     0.327439     0.662162     0.108 
H1       H      0.226188     0.827439     0.662162     0.108 
H1       H      0.238275     0.35105      0.152826     0.108 
H1       H      0.738275     0.85105      0.152826     0.108 
H1       H      0.738275     0.35105      0.652826     0.108 
H1       H      0.238275     0.85105      0.652826     0.108 
H1       H      0.234202     0.34126      0.207413     0.108 
H1       H      0.734202     0.84126      0.207413     0.108 
H1       H      0.734202     0.34126      0.707413     0.108 
H1       H      0.234202     0.84126      0.707413     0.108 
H1       H      0.248402     0.363551     0.198741     0.108 
H1       H      0.748402     0.863551     0.198741     0.108 
H1       H      0.748402     0.363551     0.698741     0.108 
H1       H      0.248402     0.863551     0.698741     0.108 
H1       H      0.187739     0.43482      0.208052     0.108 
H1       H      0.687738     0.93482      0.208052     0.108 
H1       H      0.687738     0.43482      0.708052     0.108 
H1       H      0.187739     0.93482      0.708052     0.108 
H1       H      0.210333     0.398184     0.230042     0.108 
H1       H      0.710333     0.898184     0.230042     0.108 
H1       H      0.710333     0.398184     0.730042     0.108 
H1       H      0.210333     0.898184     0.730042     0.108 
H1       H      0.210901     0.380481     0.125009     0.108 
H1       H      0.710901     0.880481     0.125009     0.108 
H1       H      0.710901     0.380481     0.625009     0.108 
H1       H      0.210901     0.880481     0.625009     0.108 
H1       H      0.184467     0.375439     0.115095     0.108 
H1       H      0.684467     0.875439     0.115095     0.108 
H1       H      0.684467     0.375439     0.615095     0.108 
H1       H      0.184467     0.875439     0.615095     0.108 
H1       H      0.194271     0.414902     0.153        0.108 
H1       H      0.69427      0.914902     0.153        0.108 
H1       H      0.69427      0.414902     0.653        0.108 
H1       H      0.194271     0.914902     0.653        0.108 
H1       H      0.168108     0.412752     0.142242     0.108 
H1       H      0.668108     0.912752     0.142242     0.108 
H1       H      0.668108     0.412752     0.642242     0.108 
H1       H      0.168108     0.912752     0.642242     0.108 
H1       H      0.0124565    0.257953     0.0813152    0.108 
H1       H      0.512457     0.757953     0.0813152    0.108 
H1       H      0.512457     0.257953     0.581315     0.108 
H1       H      0.0124565    0.757953     0.581315     0.108 
Cr2      Cr     0.57201      0.34473      0.262909     1.35  
Cr2      Cr     0.0720105    0.84473      0.262909     1.35  
Cr2      Cr     0.0720105    0.34473      0.762909     1.35  
Cr2      Cr     0.57201      0.84473      0.762909     1.35  
Cr1      Cr     0.70754      0.0728004    0.45846      1.619 
Cr1      Cr     0.20754      0.5728       0.45846      1.619 
Cr1      Cr     0.20754      0.0728004    0.95846      1.619 
Cr1      Cr     0.70754      0.5728       0.95846      1.619 
O3       O      0.0901799    0.10869      0.18036     -0.438 
O3       O      0.59018      0.60869      0.18036     -0.438 
O3       O      0.59018      0.10869      0.68036     -0.438 
O3       O      0.0901799    0.60869      0.68036     -0.438 
O2       O      0.69413      0.0738998    0.47646     -0.574 
O2       O      0.19413      0.5739       0.47646     -0.574 
O2       O      0.19413      0.0738998    0.97646     -0.574 
O2       O      0.69413      0.5739       0.97646     -0.574 
O3       O      0.17737      0.08886      0.0507005   -0.438 
O3       O      0.67737      0.58886      0.0507005   -0.438 
O3       O      0.67737      0.08886      0.5507      -0.438 
O3       O      0.17737      0.58886      0.5507      -0.438 
O3       O      0.72584      0.471219     0.0706804   -0.438 
O3       O      0.22584      0.971219     0.0706804   -0.438 
O3       O      0.22584      0.471219     0.57068     -0.438 
O3       O      0.72584      0.971219     0.57068     -0.438 
O2       O      0.72805      0.46763      0.0452295   -0.574 
O2       O      0.22805      0.96763      0.0452295   -0.574 
O2       O      0.22805      0.46763      0.545229    -0.574 
O2       O      0.72805      0.96763      0.545229    -0.574 
O2       O      0.57439      0.327009     0.23044     -0.574 
O2       O      0.0743904    0.827009     0.23044     -0.574 
O2       O      0.0743904    0.327009     0.73044     -0.574 
O2       O      0.57439      0.827009     0.73044     -0.574 
O3       O      0.55997      0.33776      0.24692     -0.438 
O3       O      0.0599703    0.83776      0.24692     -0.438 
O3       O      0.0599703    0.33776      0.74692     -0.438 
O3       O      0.55997      0.83776      0.74692     -0.438 
O3       O      0.52721      0.33758      0.148759    -0.438 
O3       O      0.0272097    0.83758      0.148759    -0.438 
O3       O      0.0272097    0.33758      0.648759    -0.438 
O3       O      0.52721      0.83758      0.648759    -0.438 
O2       O      0.52253      0.35774      0.13451     -0.574 
O2       O      0.0225298    0.85774      0.13451     -0.574 
O2       O      0.0225298    0.35774      0.63451     -0.574 
O2       O      0.52253      0.85774      0.63451     -0.574 
O2       O      0.60189      0.35125      0.12552     -0.574 
O2       O      0.10189      0.85125      0.12552     -0.574 
O2       O      0.10189      0.35125      0.62552     -0.574 
O2       O      0.60189      0.85125      0.62552     -0.574 
O2       O      0.59307      0.37292      0.116311    -0.574 
O2       O      0.0930696    0.87292      0.116311    -0.574 
O2       O      0.0930696    0.37292      0.616309    -0.574 
O2       O      0.59307      0.87292      0.616309    -0.574 
O3       O      0.559109     0.44362      0.17195     -0.438 
O3       O      0.0591095    0.94362      0.17195     -0.438 
O3       O      0.0591095    0.44362      0.67195     -0.438 
O3       O      0.559109     0.94362      0.67195     -0.438 
O2       O      0.60378      0.39839      0.12944     -0.574 
O2       O      0.10378      0.89839      0.12944     -0.574 
O2       O      0.10378      0.39839      0.62944     -0.574 
O2       O      0.60378      0.89839      0.62944     -0.574 
O2       O      0.52376      0.435231     0.20379     -0.574 
O2       O      0.0237597    0.935229     0.20379     -0.574 
O2       O      0.0237597    0.435231     0.70379     -0.574 
O2       O      0.52376      0.935229     0.70379     -0.574 
O3       O      0.53088      0.43927      0.18055     -0.438 
O3       O      0.0308803    0.93927      0.18055     -0.438 
O3       O      0.0308803    0.43927      0.68055     -0.438 
O3       O      0.53088      0.93927      0.68055     -0.438 
O2       O      0.49336      0.36692      0.17722     -0.574 
O2       O      0.99336      0.86692      0.17722     -0.574 
O2       O      0.99336      0.36692      0.67722     -0.574 
O2       O      0.49336      0.86692      0.67722     -0.574 
O2       O      0.50338      0.37647      0.15475     -0.574 
O2       O      0.00338026   0.87647      0.15475     -0.574 
O2       O      0.00338026   0.37647      0.65475     -0.574 
O2       O      0.50338      0.87647      0.65475     -0.574 
F1       F      0.5525       0.3442       0.27526     -0.547 
F1       F      0.0524997    0.8442       0.27526     -0.547 
F1       F      0.0524997    0.3442       0.77526     -0.547 
F1       F      0.5525       0.8442       0.77526     -0.547 
C3       C      0.10929      0.1295       0.18066     -0.058 
C3       C      0.60929      0.6295       0.18066     -0.058 
C3       C      0.60929      0.1295       0.68066     -0.058 
C3       C      0.10929      0.6295       0.68066     -0.058 
C3       C      0.188        0.0816303    0.00507038  -0.058 
C3       C      0.688        0.58163      0.00507038  -0.058 
C3       C      0.688        0.0816303    0.50507     -0.058 
C3       C      0.188        0.58163      0.50507     -0.058 
C3       C      0.1847       0.08506      0.0205201   -0.058 
C3       C      0.6847       0.58506      0.0205201   -0.058 
C3       C      0.6847       0.08506      0.52052     -0.058 
C3       C      0.1847       0.58506      0.52052     -0.058 
C3       C      0.75252      0.48623      0.0469095   -0.058 
C3       C      0.25252      0.98623      0.0469095   -0.058 
C3       C      0.25252      0.48623      0.546909    -0.058 
C3       C      0.75252      0.98623      0.546909    -0.058 
C1       C      0.72967      0.476        0.0573597    0.496 
C1       C      0.22967      0.976        0.0573597    0.496 
C1       C      0.22967      0.476        0.55736      0.496 
C1       C      0.72967      0.976        0.55736      0.496 
C2       C      0.7406       0.48755      0.0573597   -0.07  
C2       C      0.2406       0.98755      0.0573597   -0.07  
C2       C      0.2406       0.48755      0.55736     -0.07  
C2       C      0.7406       0.98755      0.55736     -0.07  
C3       C      0.74368      0.49506      0.0714096   -0.058 
C3       C      0.24368      0.99506      0.0714096   -0.058 
C3       C      0.24368      0.49506      0.57141     -0.058 
C3       C      0.74368      0.99506      0.57141     -0.058 
C3       C      0.55231      0.32184      0.20923     -0.058 
C3       C      0.0523096    0.82184      0.20923     -0.058 
C3       C      0.0523096    0.32184      0.709229    -0.058 
C3       C      0.55231      0.82184      0.709229    -0.058 
C1       C      0.5613       0.33022      0.23456      0.496 
C1       C      0.0613003    0.83022      0.23456      0.496 
C1       C      0.0613003    0.33022      0.73456      0.496 
C1       C      0.5613       0.83022      0.73456      0.496 
C2       C      0.550179     0.33111      0.222589    -0.07  
C2       C      0.0501795    0.83111      0.222589    -0.07  
C2       C      0.0501795    0.33111      0.722589    -0.07  
C2       C      0.550179     0.83111      0.722589    -0.07  
C3       C      0.53933      0.3429       0.221969    -0.058 
C3       C      0.0393298    0.8429       0.221969    -0.058 
C3       C      0.0393298    0.3429       0.721969    -0.058 
C3       C      0.53933      0.8429       0.721969    -0.058 
C3       C      0.55816      0.342039     0.14347     -0.058 
C3       C      0.0581598    0.842039     0.14347     -0.058 
C3       C      0.0581598    0.342039     0.64347     -0.058 
C3       C      0.55816      0.842039     0.64347     -0.058 
C1       C      0.53092      0.34671      0.13844      0.496 
C1       C      0.0309197    0.84671      0.13844      0.496 
C1       C      0.0309197    0.34671      0.63844      0.496 
C1       C      0.53092      0.84671      0.63844      0.496 
C2       C      0.54596      0.34891      0.13504     -0.07  
C2       C      0.0459598    0.84891      0.13504     -0.07  
C2       C      0.0459598    0.34891      0.63504     -0.07  
C2       C      0.54596      0.84891      0.63504     -0.07  
C3       C      0.5731       0.34472      0.13883     -0.058 
C3       C      0.0730997    0.84472      0.13883     -0.058 
C3       C      0.0730997    0.34472      0.63883     -0.058 
C3       C      0.5731       0.84472      0.63883     -0.058 
C1       C      0.59071      0.3603       0.12309      0.496 
C1       C      0.0907099    0.8603       0.12309      0.496 
C1       C      0.0907099    0.3603       0.62309      0.496 
C1       C      0.59071      0.8603       0.62309      0.496 
C2       C      0.57589      0.357689     0.1295      -0.07  
C2       C      0.0758904    0.857689     0.1295      -0.07  
C2       C      0.0758904    0.357689     0.6295      -0.07  
C2       C      0.57589      0.857689     0.6295      -0.07  
C3       C      0.54836      0.36224      0.12746     -0.058 
C3       C      0.0483599    0.86224      0.12746     -0.058 
C3       C      0.0483599    0.36224      0.62746     -0.058 
C3       C      0.54836      0.86224      0.62746     -0.058 
C3       C      0.5635       0.36582      0.12311     -0.058 
C3       C      0.0635002    0.865819     0.12311     -0.058 
C3       C      0.0635002    0.36582      0.62311     -0.058 
C3       C      0.5635       0.865819     0.62311     -0.058 
C3       C      0.57678      0.42951      0.15471     -0.058 
C3       C      0.0767804    0.92951      0.15471     -0.058 
C3       C      0.0767804    0.42951      0.65471     -0.058 
C3       C      0.57678      0.92951      0.65471     -0.058 
C3       C      0.58485      0.41801      0.14645     -0.058 
C3       C      0.0848496    0.91801      0.14645     -0.058 
C3       C      0.0848496    0.41801      0.64645     -0.058 
C3       C      0.58485      0.91801      0.64645     -0.058 
C3       C      0.51355      0.40706      0.195709    -0.058 
C3       C      0.0135503    0.90706      0.195709    -0.058 
C3       C      0.0135503    0.40706      0.695709    -0.058 
C3       C      0.51355      0.90706      0.695709    -0.058 
C1       C      0.52464      0.4313       0.19016      0.496 
C1       C      0.0246396    0.9313       0.19016      0.496 
C1       C      0.0246396    0.4313       0.69016      0.496 
C1       C      0.52464      0.9313       0.69016      0.496 
C2       C      0.51807      0.41789      0.18518     -0.07  
C2       C      0.0180704    0.91789      0.18518     -0.07  
C2       C      0.0180704    0.41789      0.68518     -0.07  
C2       C      0.51807      0.91789      0.68518     -0.07  
C3       C      0.50617      0.39422      0.190759    -0.058 
C3       C      0.00616976   0.89422      0.190759    -0.058 
C3       C      0.00616976   0.39422      0.690759    -0.058 
C3       C      0.50617      0.89422      0.690759    -0.058 
C1       C      0.50095      0.37747      0.16918      0.496 
C1       C      0.000949712  0.87747      0.16918      0.496 
C1       C      0.000949712  0.37747      0.669179     0.496 
C1       C      0.50095      0.87747      0.669179     0.496 
C2       C      0.50489      0.39175      0.17522     -0.07  
C2       C      0.00489034   0.89175      0.17522     -0.07  
C2       C      0.00489034   0.39175      0.67522     -0.07  
C2       C      0.50489      0.89175      0.67522     -0.07  
C3       C      0.51846      0.41484      0.16968     -0.058 
C3       C      0.0184598    0.91484      0.16968     -0.058 
C3       C      0.0184598    0.41484      0.66968     -0.058 
C3       C      0.51846      0.91484      0.66968     -0.058 
C3       C      0.51171      0.40158      0.16458     -0.058 
C3       C      0.0117105    0.90158      0.16458     -0.058 
C3       C      0.0117105    0.40158      0.66458     -0.058 
C3       C      0.51171      0.90158      0.66458     -0.058 
H1       H      0.697495     0.0867006    0.499673     0.108 
H1       H      0.197495     0.586701     0.499673     0.108 
H1       H      0.197495     0.0867006    0.999673     0.108 
H1       H      0.697495     0.586701     0.999673     0.108 
H1       H      0.191211     0.0933138    0.0263737    0.108 
H1       H      0.691211     0.593314     0.0263737    0.108 
H1       H      0.691211     0.0933138    0.526374     0.108 
H1       H      0.191211     0.593314     0.526374     0.108 
H1       H      0.565441     0.432217     0.151732     0.108 
H1       H      0.0654413    0.932217     0.151732     0.108 
H1       H      0.0654413    0.432217     0.651732     0.108 
H1       H      0.565441     0.932217     0.651732     0.108 
H1       H      0.580636     0.414125     0.135871     0.108 
H1       H      0.0806355    0.914125     0.135871     0.108 
H1       H      0.0806355    0.414125     0.635871     0.108 
H1       H      0.580636     0.914125     0.635871     0.108 
H1       H      0.0976246    0.131832     0.1789       0.108 
H1       H      0.597625     0.631832     0.1789       0.108 
H1       H      0.597625     0.131832     0.6789       0.108 
H1       H      0.0976246    0.631832     0.6789       0.108 
H1       H      0.752846     0.476915     0.0393005    0.108 
H1       H      0.252846     0.976915     0.0393005    0.108 
H1       H      0.252846     0.476915     0.539301     0.108 
H1       H      0.752846     0.976915     0.539301     0.108 
H1       H      0.523813     0.42256      0.162162     0.108 
H1       H      0.0238126    0.92256      0.162162     0.108 
H1       H      0.0238126    0.42256      0.662162     0.108 
H1       H      0.523813     0.92256      0.662162     0.108 
H1       H      0.511724     0.39895      0.152826     0.108 
H1       H      0.011724     0.89895      0.152826     0.108 
H1       H      0.011724     0.39895      0.652826     0.108 
H1       H      0.511724     0.89895      0.652826     0.108 
H1       H      0.515797     0.40874      0.207413     0.108 
H1       H      0.0157974    0.90874      0.207413     0.108 
H1       H      0.0157974    0.40874      0.707413     0.108 
H1       H      0.515797     0.90874      0.707413     0.108 
H1       H      0.501598     0.386449     0.198741     0.108 
H1       H      0.00159786   0.886449     0.198741     0.108 
H1       H      0.00159786   0.386449     0.698741     0.108 
H1       H      0.501598     0.886449     0.698741     0.108 
H1       H      0.562261     0.31518      0.208052     0.108 
H1       H      0.0622613    0.81518      0.208052     0.108 
H1       H      0.0622613    0.31518      0.708052     0.108 
H1       H      0.562261     0.81518      0.708052     0.108 
H1       H      0.539666     0.351816     0.230042     0.108 
H1       H      0.0396663    0.851816     0.230042     0.108 
H1       H      0.0396663    0.351816     0.730042     0.108 
H1       H      0.539666     0.851816     0.730042     0.108 
H1       H      0.539098     0.369518     0.125009     0.108 
H1       H      0.039098     0.869518     0.125009     0.108 
H1       H      0.039098     0.369518     0.625009     0.108 
H1       H      0.539098     0.869518     0.625009     0.108 
H1       H      0.565532     0.37456      0.115095     0.108 
H1       H      0.0655324    0.87456      0.115095     0.108 
H1       H      0.0655324    0.37456      0.615095     0.108 
H1       H      0.565532     0.87456      0.615095     0.108 
H1       H      0.555729     0.335099     0.153        0.108 
H1       H      0.0557292    0.835099     0.153        0.108 
H1       H      0.0557292    0.335099     0.653        0.108 
H1       H      0.555729     0.835099     0.653        0.108 
H1       H      0.581891     0.337247     0.142242     0.108 
H1       H      0.0818913    0.837247     0.142242     0.108 
H1       H      0.0818913    0.337247     0.642242     0.108 
H1       H      0.581891     0.837247     0.642242     0.108 
H1       H      0.737544     0.492047     0.0813152    0.108 
H1       H      0.237544     0.992047     0.0813152    0.108 
H1       H      0.237544     0.492047     0.581315     0.108 
H1       H      0.737544     0.992047     0.581315     0.108 
Cr1      Cr     0.84473      0.262909     0.0720105    1.619 
Cr1      Cr     0.34473      0.762909     0.0720105    1.619 
Cr1      Cr     0.34473      0.262909     0.57201      1.619 
Cr1      Cr     0.84473      0.762909     0.57201      1.619 
Cr1      Cr     0.5728       0.45846      0.20754      1.619 
Cr1      Cr     0.0728004    0.95846      0.20754      1.619 
Cr1      Cr     0.0728004    0.45846      0.70754      1.619 
Cr1      Cr     0.5728       0.95846      0.70754      1.619 
O2       O      0.10869      0.18036      0.0901799   -0.574 
O2       O      0.60869      0.68036      0.0901799   -0.574 
O2       O      0.60869      0.18036      0.59018     -0.574 
O2       O      0.10869      0.68036      0.59018     -0.574 
O2       O      0.5739       0.47646      0.19413     -0.574 
O2       O      0.0738998    0.97646      0.19413     -0.574 
O2       O      0.0738998    0.47646      0.69413     -0.574 
O2       O      0.5739       0.97646      0.69413     -0.574 
O2       O      0.08886      0.0507005    0.17737     -0.574 
O2       O      0.58886      0.5507       0.17737     -0.574 
O2       O      0.58886      0.0507005    0.67737     -0.574 
O2       O      0.08886      0.5507       0.67737     -0.574 
O2       O      0.971219     0.0706804    0.22584     -0.574 
O2       O      0.471219     0.57068      0.22584     -0.574 
O2       O      0.471219     0.0706804    0.72584     -0.574 
O2       O      0.971219     0.57068      0.72584     -0.574 
O3       O      0.96763      0.0452295    0.22805     -0.438 
O3       O      0.46763      0.545229     0.22805     -0.438 
O3       O      0.46763      0.0452295    0.72805     -0.438 
O3       O      0.96763      0.545229     0.72805     -0.438 
O3       O      0.827009     0.23044      0.0743904   -0.438 
O3       O      0.327009     0.73044      0.0743904   -0.438 
O3       O      0.327009     0.23044      0.57439     -0.438 
O3       O      0.827009     0.73044      0.57439     -0.438 
O2       O      0.83776      0.24692      0.0599703   -0.574 
O2       O      0.33776      0.74692      0.0599703   -0.574 
O2       O      0.33776      0.24692      0.55997     -0.574 
O2       O      0.83776      0.74692      0.55997     -0.574 
O2       O      0.83758      0.148759     0.0272097   -0.574 
O2       O      0.33758      0.648759     0.0272097   -0.574 
O2       O      0.33758      0.148759     0.52721     -0.574 
O2       O      0.83758      0.648759     0.52721     -0.574 
O3       O      0.85774      0.13451      0.0225298   -0.438 
O3       O      0.35774      0.63451      0.0225298   -0.438 
O3       O      0.35774      0.13451      0.52253     -0.438 
O3       O      0.85774      0.63451      0.52253     -0.438 
O3       O      0.85125      0.12552      0.10189     -0.438 
O3       O      0.35125      0.62552      0.10189     -0.438 
O3       O      0.35125      0.12552      0.60189     -0.438 
O3       O      0.85125      0.62552      0.60189     -0.438 
O2       O      0.87292      0.116311     0.0930696   -0.574 
O2       O      0.37292      0.616309     0.0930696   -0.574 
O2       O      0.37292      0.116311     0.59307     -0.574 
O2       O      0.87292      0.616309     0.59307     -0.574 
O2       O      0.94362      0.17195      0.0591095   -0.574 
O2       O      0.44362      0.67195      0.0591095   -0.574 
O2       O      0.44362      0.17195      0.559109    -0.574 
O2       O      0.94362      0.67195      0.559109    -0.574 
O2       O      0.89839      0.12944      0.10378     -0.574 
O2       O      0.39839      0.62944      0.10378     -0.574 
O2       O      0.39839      0.12944      0.60378     -0.574 
O2       O      0.89839      0.62944      0.60378     -0.574 
O3       O      0.935229     0.20379      0.0237597   -0.438 
O3       O      0.435231     0.70379      0.0237597   -0.438 
O3       O      0.435231     0.20379      0.52376     -0.438 
O3       O      0.935229     0.70379      0.52376     -0.438 
O2       O      0.93927      0.18055      0.0308803   -0.574 
O2       O      0.43927      0.68055      0.0308803   -0.574 
O2       O      0.43927      0.18055      0.53088     -0.574 
O2       O      0.93927      0.68055      0.53088     -0.574 
O2       O      0.36692      0.17722      0.49336     -0.574 
O2       O      0.86692      0.67722      0.49336     -0.574 
O2       O      0.86692      0.17722      0.99336     -0.574 
O2       O      0.36692      0.67722      0.99336     -0.574 
O3       O      0.87647      0.15475      0.00338026  -0.438 
O3       O      0.37647      0.65475      0.00338026  -0.438 
O3       O      0.37647      0.15475      0.50338     -0.438 
O3       O      0.87647      0.65475      0.50338     -0.438 
C3       C      0.1295       0.18066      0.10929     -0.058 
C3       C      0.6295       0.68066      0.10929     -0.058 
C3       C      0.6295       0.18066      0.60929     -0.058 
C3       C      0.1295       0.68066      0.60929     -0.058 
C3       C      0.0816303    0.00507038   0.188       -0.058 
C3       C      0.58163      0.50507      0.188       -0.058 
C3       C      0.58163      0.00507038   0.688       -0.058 
C3       C      0.0816303    0.50507      0.688       -0.058 
C3       C      0.08506      0.0205201    0.1847      -0.058 
C3       C      0.58506      0.52052      0.1847      -0.058 
C3       C      0.58506      0.0205201    0.6847      -0.058 
C3       C      0.08506      0.52052      0.6847      -0.058 
C3       C      0.98623      0.0469095    0.25252     -0.058 
C3       C      0.48623      0.546909     0.25252     -0.058 
C3       C      0.48623      0.0469095    0.75252     -0.058 
C3       C      0.98623      0.546909     0.75252     -0.058 
C1       C      0.976        0.0573597    0.22967      0.496 
C1       C      0.476        0.55736      0.22967      0.496 
C1       C      0.476        0.0573597    0.72967      0.496 
C1       C      0.976        0.55736      0.72967      0.496 
C2       C      0.98755      0.0573597    0.2406      -0.07  
C2       C      0.48755      0.55736      0.2406      -0.07  
C2       C      0.48755      0.0573597    0.7406      -0.07  
C2       C      0.98755      0.55736      0.7406      -0.07  
C3       C      0.99506      0.0714096    0.24368     -0.058 
C3       C      0.49506      0.57141      0.24368     -0.058 
C3       C      0.49506      0.0714096    0.74368     -0.058 
C3       C      0.99506      0.57141      0.74368     -0.058 
C3       C      0.82184      0.20923      0.0523096   -0.058 
C3       C      0.32184      0.709229     0.0523096   -0.058 
C3       C      0.32184      0.20923      0.55231     -0.058 
C3       C      0.82184      0.709229     0.55231     -0.058 
C1       C      0.83022      0.23456      0.0613003    0.496 
C1       C      0.33022      0.73456      0.0613003    0.496 
C1       C      0.33022      0.23456      0.5613       0.496 
C1       C      0.83022      0.73456      0.5613       0.496 
C2       C      0.83111      0.222589     0.0501795   -0.07  
C2       C      0.33111      0.722589     0.0501795   -0.07  
C2       C      0.33111      0.222589     0.550179    -0.07  
C2       C      0.83111      0.722589     0.550179    -0.07  
C3       C      0.8429       0.221969     0.0393298   -0.058 
C3       C      0.3429       0.721969     0.0393298   -0.058 
C3       C      0.3429       0.221969     0.53933     -0.058 
C3       C      0.8429       0.721969     0.53933     -0.058 
C3       C      0.842039     0.14347      0.0581598   -0.058 
C3       C      0.342039     0.64347      0.0581598   -0.058 
C3       C      0.342039     0.14347      0.55816     -0.058 
C3       C      0.842039     0.64347      0.55816     -0.058 
C1       C      0.84671      0.13844      0.0309197    0.496 
C1       C      0.34671      0.63844      0.0309197    0.496 
C1       C      0.34671      0.13844      0.53092      0.496 
C1       C      0.84671      0.63844      0.53092      0.496 
C2       C      0.84891      0.13504      0.0459598   -0.07  
C2       C      0.34891      0.63504      0.0459598   -0.07  
C2       C      0.34891      0.13504      0.54596     -0.07  
C2       C      0.84891      0.63504      0.54596     -0.07  
C3       C      0.84472      0.13883      0.0730997   -0.058 
C3       C      0.34472      0.63883      0.0730997   -0.058 
C3       C      0.34472      0.13883      0.5731      -0.058 
C3       C      0.84472      0.63883      0.5731      -0.058 
C1       C      0.8603       0.12309      0.0907099    0.496 
C1       C      0.3603       0.62309      0.0907099    0.496 
C1       C      0.3603       0.12309      0.59071      0.496 
C1       C      0.8603       0.62309      0.59071      0.496 
C2       C      0.857689     0.1295       0.0758904   -0.07  
C2       C      0.357689     0.6295       0.0758904   -0.07  
C2       C      0.357689     0.1295       0.57589     -0.07  
C2       C      0.857689     0.6295       0.57589     -0.07  
C3       C      0.86224      0.12746      0.0483599   -0.058 
C3       C      0.36224      0.62746      0.0483599   -0.058 
C3       C      0.36224      0.12746      0.54836     -0.058 
C3       C      0.86224      0.62746      0.54836     -0.058 
C3       C      0.865819     0.12311      0.0635002   -0.058 
C3       C      0.36582      0.62311      0.0635002   -0.058 
C3       C      0.36582      0.12311      0.5635      -0.058 
C3       C      0.865819     0.62311      0.5635      -0.058 
C3       C      0.92951      0.15471      0.0767804   -0.058 
C3       C      0.42951      0.65471      0.0767804   -0.058 
C3       C      0.42951      0.15471      0.57678     -0.058 
C3       C      0.92951      0.65471      0.57678     -0.058 
C3       C      0.91801      0.14645      0.0848496   -0.058 
C3       C      0.41801      0.64645      0.0848496   -0.058 
C3       C      0.41801      0.14645      0.58485     -0.058 
C3       C      0.91801      0.64645      0.58485     -0.058 
C3       C      0.90706      0.195709     0.0135503   -0.058 
C3       C      0.40706      0.695709     0.0135503   -0.058 
C3       C      0.40706      0.195709     0.51355     -0.058 
C3       C      0.90706      0.695709     0.51355     -0.058 
C1       C      0.9313       0.19016      0.0246396    0.496 
C1       C      0.4313       0.69016      0.0246396    0.496 
C1       C      0.4313       0.19016      0.52464      0.496 
C1       C      0.9313       0.69016      0.52464      0.496 
C2       C      0.91789      0.18518      0.0180704   -0.07  
C2       C      0.41789      0.68518      0.0180704   -0.07  
C2       C      0.41789      0.18518      0.51807     -0.07  
C2       C      0.91789      0.68518      0.51807     -0.07  
C3       C      0.89422      0.190759     0.00616976  -0.058 
C3       C      0.39422      0.690759     0.00616976  -0.058 
C3       C      0.39422      0.190759     0.50617     -0.058 
C3       C      0.89422      0.690759     0.50617     -0.058 
C1       C      0.87747      0.16918      0.000949712  0.496 
C1       C      0.37747      0.669179     0.000949712  0.496 
C1       C      0.37747      0.16918      0.50095      0.496 
C1       C      0.87747      0.669179     0.50095      0.496 
C2       C      0.89175      0.17522      0.00489034  -0.07  
C2       C      0.39175      0.67522      0.00489034  -0.07  
C2       C      0.39175      0.17522      0.50489     -0.07  
C2       C      0.89175      0.67522      0.50489     -0.07  
C3       C      0.91484      0.16968      0.0184598   -0.058 
C3       C      0.41484      0.66968      0.0184598   -0.058 
C3       C      0.41484      0.16968      0.51846     -0.058 
C3       C      0.91484      0.66968      0.51846     -0.058 
C3       C      0.90158      0.16458      0.0117105   -0.058 
C3       C      0.40158      0.66458      0.0117105   -0.058 
C3       C      0.40158      0.16458      0.51171     -0.058 
C3       C      0.90158      0.66458      0.51171     -0.058 
H1       H      0.586701     0.499673     0.197495     0.108 
H1       H      0.0867006    0.999673     0.197495     0.108 
H1       H      0.0867006    0.499673     0.697495     0.108 
H1       H      0.586701     0.999673     0.697495     0.108 
H1       H      0.0933138    0.0263737    0.191211     0.108 
H1       H      0.593314     0.526374     0.191211     0.108 
H1       H      0.593314     0.0263737    0.691211     0.108 
H1       H      0.0933138    0.526374     0.691211     0.108 
H1       H      0.932217     0.151732     0.0654413    0.108 
H1       H      0.432217     0.651732     0.0654413    0.108 
H1       H      0.432217     0.151732     0.565441     0.108 
H1       H      0.932217     0.651732     0.565441     0.108 
H1       H      0.914125     0.135871     0.0806355    0.108 
H1       H      0.414125     0.635871     0.0806355    0.108 
H1       H      0.414125     0.135871     0.580636     0.108 
H1       H      0.914125     0.635871     0.580636     0.108 
H1       H      0.131832     0.1789       0.0976246    0.108 
H1       H      0.631832     0.6789       0.0976246    0.108 
H1       H      0.631832     0.1789       0.597625     0.108 
H1       H      0.131832     0.6789       0.597625     0.108 
H1       H      0.976915     0.0393005    0.252846     0.108 
H1       H      0.476915     0.539301     0.252846     0.108 
H1       H      0.476915     0.0393005    0.752846     0.108 
H1       H      0.976915     0.539301     0.752846     0.108 
H1       H      0.92256      0.162162     0.0238126    0.108 
H1       H      0.42256      0.662162     0.0238126    0.108 
H1       H      0.42256      0.162162     0.523813     0.108 
H1       H      0.92256      0.662162     0.523813     0.108 
H1       H      0.89895      0.152826     0.011724     0.108 
H1       H      0.39895      0.652826     0.011724     0.108 
H1       H      0.39895      0.152826     0.511724     0.108 
H1       H      0.89895      0.652826     0.511724     0.108 
H1       H      0.90874      0.207413     0.0157974    0.108 
H1       H      0.40874      0.707413     0.0157974    0.108 
H1       H      0.40874      0.207413     0.515797     0.108 
H1       H      0.90874      0.707413     0.515797     0.108 
H1       H      0.886449     0.198741     0.00159786   0.108 
H1       H      0.386449     0.698741     0.00159786   0.108 
H1       H      0.386449     0.198741     0.501598     0.108 
H1       H      0.886449     0.698741     0.501598     0.108 
H1       H      0.81518      0.208052     0.0622613    0.108 
H1       H      0.31518      0.708052     0.0622613    0.108 
H1       H      0.31518      0.208052     0.562261     0.108 
H1       H      0.81518      0.708052     0.562261     0.108 
H1       H      0.851816     0.230042     0.0396663    0.108 
H1       H      0.351816     0.730042     0.0396663    0.108 
H1       H      0.351816     0.230042     0.539666     0.108 
H1       H      0.851816     0.730042     0.539666     0.108 
H1       H      0.869518     0.125009     0.039098     0.108 
H1       H      0.369518     0.625009     0.039098     0.108 
H1       H      0.369518     0.125009     0.539098     0.108 
H1       H      0.869518     0.625009     0.539098     0.108 
H1       H      0.87456      0.115095     0.0655324    0.108 
H1       H      0.37456      0.615095     0.0655324    0.108 
H1       H      0.37456      0.115095     0.565532     0.108 
H1       H      0.87456      0.615095     0.565532     0.108 
H1       H      0.835099     0.153        0.0557292    0.108 
H1       H      0.335099     0.653        0.0557292    0.108 
H1       H      0.335099     0.153        0.555729     0.108 
H1       H      0.835099     0.653        0.555729     0.108 
H1       H      0.837247     0.142242     0.0818913    0.108 
H1       H      0.337247     0.642242     0.0818913    0.108 
H1       H      0.337247     0.142242     0.581891     0.108 
H1       H      0.837247     0.642242     0.581891     0.108 
H1       H      0.992047     0.0813152    0.237544     0.108 
H1       H      0.492047     0.581315     0.237544     0.108 
H1       H      0.492047     0.0813152    0.737544     0.108 
H1       H      0.992047     0.581315     0.737544     0.108 
Cr1      Cr     0.40527      0.262909     0.17799      1.619 
Cr1      Cr     0.90527      0.762909     0.17799      1.619 
Cr1      Cr     0.90527      0.262909     0.67799      1.619 
Cr1      Cr     0.40527      0.762909     0.67799      1.619 
Cr1      Cr     0.6772       0.45846      0.0424603    1.619 
Cr1      Cr     0.1772       0.95846      0.0424603    1.619 
Cr1      Cr     0.1772       0.45846      0.54246      1.619 
Cr1      Cr     0.6772       0.95846      0.54246      1.619 
O2       O      0.14131      0.18036      0.15982     -0.574 
O2       O      0.64131      0.68036      0.15982     -0.574 
O2       O      0.64131      0.18036      0.65982     -0.574 
O2       O      0.14131      0.68036      0.65982     -0.574 
O2       O      0.6761       0.47646      0.0558699   -0.574 
O2       O      0.1761       0.97646      0.0558699   -0.574 
O2       O      0.1761       0.47646      0.55587     -0.574 
O2       O      0.6761       0.97646      0.55587     -0.574 
O2       O      0.161139     0.0507005    0.0726305   -0.574 
O2       O      0.661139     0.5507       0.0726305   -0.574 
O2       O      0.661139     0.0507005    0.572629    -0.574 
O2       O      0.161139     0.5507       0.572629    -0.574 
O3       O      0.27878      0.0706804    0.0241603   -0.438 
O3       O      0.77878      0.57068      0.0241603   -0.438 
O3       O      0.77878      0.0706804    0.52416     -0.438 
O3       O      0.27878      0.57068      0.52416     -0.438 
O2       O      0.28237      0.0452295    0.0219503   -0.574 
O2       O      0.78237      0.545229     0.0219503   -0.574 
O2       O      0.78237      0.0452295    0.52195     -0.574 
O2       O      0.28237      0.545229     0.52195     -0.574 
O2       O      0.42299      0.23044      0.17561     -0.574 
O2       O      0.92299      0.73044      0.17561     -0.574 
O2       O      0.92299      0.23044      0.67561     -0.574 
O2       O      0.42299      0.73044      0.67561     -0.574 
O2       O      0.41224      0.24692      0.19003     -0.574 
O2       O      0.912239     0.74692      0.19003     -0.574 
O2       O      0.912239     0.24692      0.69003     -0.574 
O2       O      0.41224      0.74692      0.69003     -0.574 
O2       O      0.412419     0.148759     0.22279     -0.574 
O2       O      0.912419     0.648759     0.22279     -0.574 
O2       O      0.912419     0.148759     0.72279     -0.574 
O2       O      0.412419     0.648759     0.72279     -0.574 
O3       O      0.392259     0.13451      0.22747     -0.438 
O3       O      0.892259     0.63451      0.22747     -0.438 
O3       O      0.892259     0.13451      0.72747     -0.438 
O3       O      0.392259     0.63451      0.72747     -0.438 
O3       O      0.39875      0.12552      0.14811     -0.438 
O3       O      0.89875      0.62552      0.14811     -0.438 
O3       O      0.89875      0.12552      0.64811     -0.438 
O3       O      0.39875      0.62552      0.64811     -0.438 
O2       O      0.37708      0.116311     0.15693     -0.574 
O2       O      0.87708      0.616309     0.15693     -0.574 
O2       O      0.87708      0.116311     0.65693     -0.574 
O2       O      0.37708      0.616309     0.65693     -0.574 
O2       O      0.30638      0.17195      0.19089     -0.574 
O2       O      0.80638      0.67195      0.19089     -0.574 
O2       O      0.80638      0.17195      0.69089     -0.574 
O2       O      0.30638      0.67195      0.69089     -0.574 
O2       O      0.35161      0.12944      0.14622     -0.574 
O2       O      0.85161      0.62944      0.14622     -0.574 
O2       O      0.85161      0.12944      0.64622     -0.574 
O2       O      0.35161      0.62944      0.64622     -0.574 
O2       O      0.31477      0.20379      0.22624     -0.574 
O2       O      0.81477      0.70379      0.22624     -0.574 
O2       O      0.81477      0.20379      0.72624     -0.574 
O2       O      0.31477      0.70379      0.72624     -0.574 
O2       O      0.31073      0.18055      0.21912     -0.574 
O2       O      0.81073      0.68055      0.21912     -0.574 
O2       O      0.81073      0.18055      0.71912     -0.574 
O2       O      0.31073      0.68055      0.71912     -0.574 
O2       O      0.38308      0.17722      0.25664     -0.574 
O2       O      0.88308      0.67722      0.25664     -0.574 
O2       O      0.88308      0.17722      0.75664     -0.574 
O2       O      0.38308      0.67722      0.75664     -0.574 
O3       O      0.37353      0.15475      0.24662     -0.438 
O3       O      0.87353      0.65475      0.24662     -0.438 
O3       O      0.87353      0.15475      0.74662     -0.438 
O3       O      0.37353      0.65475      0.74662     -0.438 
C3       C      0.1205       0.18066      0.14071     -0.058 
C3       C      0.6205       0.68066      0.14071     -0.058 
C3       C      0.6205       0.18066      0.64071     -0.058 
C3       C      0.1205       0.68066      0.64071     -0.058 
C3       C      0.16837      0.00507038   0.0620002   -0.058 
C3       C      0.66837      0.50507      0.0620002   -0.058 
C3       C      0.66837      0.00507038   0.562       -0.058 
C3       C      0.16837      0.50507      0.562       -0.058 
C3       C      0.164941     0.0205201    0.0652995   -0.058 
C3       C      0.664939     0.52052      0.0652995   -0.058 
C3       C      0.664939     0.0205201    0.565299    -0.058 
C3       C      0.164941     0.52052      0.565299    -0.058 
C3       C      0.76377      0.0469095    0.497479    -0.058 
C3       C      0.26377      0.546909     0.497479    -0.058 
C3       C      0.26377      0.0469095    0.997479    -0.058 
C3       C      0.76377      0.546909     0.997479    -0.058 
C1       C      0.274        0.0573597    0.0203299    0.496 
C1       C      0.774        0.55736      0.0203299    0.496 
C1       C      0.774        0.0573597    0.52033      0.496 
C1       C      0.274        0.55736      0.52033      0.496 
C2       C      0.26245      0.0573597    0.00940035  -0.07  
C2       C      0.76245      0.55736      0.00940035  -0.07  
C2       C      0.76245      0.0573597    0.5094      -0.07  
C2       C      0.26245      0.55736      0.5094      -0.07  
C3       C      0.25494      0.0714096    0.00632054  -0.058 
C3       C      0.75494      0.57141      0.00632054  -0.058 
C3       C      0.75494      0.0714096    0.506319    -0.058 
C3       C      0.25494      0.57141      0.506319    -0.058 
C3       C      0.428159     0.20923      0.19769     -0.058 
C3       C      0.928159     0.709229     0.19769     -0.058 
C3       C      0.928159     0.20923      0.69769     -0.058 
C3       C      0.428159     0.709229     0.69769     -0.058 
C1       C      0.41978      0.23456      0.1887       0.496 
C1       C      0.91978      0.73456      0.1887       0.496 
C1       C      0.91978      0.23456      0.6887       0.496 
C1       C      0.41978      0.73456      0.6887       0.496 
C2       C      0.41889      0.222589     0.19982     -0.07  
C2       C      0.91889      0.722589     0.19982     -0.07  
C2       C      0.91889      0.222589     0.69982     -0.07  
C2       C      0.41889      0.722589     0.69982     -0.07  
C3       C      0.4071       0.221969     0.21067     -0.058 
C3       C      0.9071       0.721969     0.21067     -0.058 
C3       C      0.9071       0.221969     0.71067     -0.058 
C3       C      0.4071       0.721969     0.71067     -0.058 
C3       C      0.40796      0.14347      0.19184     -0.058 
C3       C      0.90796      0.64347      0.19184     -0.058 
C3       C      0.90796      0.14347      0.69184     -0.058 
C3       C      0.40796      0.64347      0.69184     -0.058 
C1       C      0.40329      0.13844      0.21908      0.496 
C1       C      0.90329      0.63844      0.21908      0.496 
C1       C      0.90329      0.13844      0.71908      0.496 
C1       C      0.40329      0.63844      0.71908      0.496 
C2       C      0.40109      0.13504      0.20404     -0.07  
C2       C      0.90109      0.63504      0.20404     -0.07  
C2       C      0.90109      0.13504      0.70404     -0.07  
C2       C      0.40109      0.63504      0.70404     -0.07  
C3       C      0.40528      0.13883      0.1769      -0.058 
C3       C      0.90528      0.63883      0.1769      -0.058 
C3       C      0.90528      0.13883      0.6769      -0.058 
C3       C      0.40528      0.63883      0.6769      -0.058 
C1       C      0.389699     0.12309      0.15929      0.496 
C1       C      0.889699     0.62309      0.15929      0.496 
C1       C      0.889699     0.12309      0.65929      0.496 
C1       C      0.389699     0.62309      0.65929      0.496 
C2       C      0.39231      0.1295       0.17411     -0.07  
C2       C      0.89231      0.6295       0.17411     -0.07  
C2       C      0.89231      0.1295       0.67411     -0.07  
C2       C      0.39231      0.6295       0.67411     -0.07  
C3       C      0.38776      0.12746      0.201639    -0.058 
C3       C      0.88776      0.62746      0.201639    -0.058 
C3       C      0.88776      0.12746      0.701639    -0.058 
C3       C      0.38776      0.62746      0.701639    -0.058 
C3       C      0.38418      0.12311      0.1865      -0.058 
C3       C      0.88418      0.62311      0.1865      -0.058 
C3       C      0.88418      0.12311      0.6865      -0.058 
C3       C      0.38418      0.62311      0.6865      -0.058 
C3       C      0.32049      0.15471      0.17322     -0.058 
C3       C      0.82049      0.65471      0.17322     -0.058 
C3       C      0.82049      0.15471      0.67322     -0.058 
C3       C      0.32049      0.65471      0.67322     -0.058 
C3       C      0.33199      0.14645      0.16515     -0.058 
C3       C      0.83199      0.64645      0.16515     -0.058 
C3       C      0.83199      0.14645      0.66515     -0.058 
C3       C      0.33199      0.64645      0.66515     -0.058 
C3       C      0.34294      0.195709     0.23645     -0.058 
C3       C      0.84294      0.695709     0.23645     -0.058 
C3       C      0.84294      0.195709     0.73645     -0.058 
C3       C      0.34294      0.695709     0.73645     -0.058 
C1       C      0.318699     0.19016      0.22536      0.496 
C1       C      0.818699     0.69016      0.22536      0.496 
C1       C      0.818699     0.19016      0.72536      0.496 
C1       C      0.318699     0.69016      0.72536      0.496 
C2       C      0.33211      0.18518      0.23193     -0.07  
C2       C      0.83211      0.68518      0.23193     -0.07  
C2       C      0.83211      0.18518      0.73193     -0.07  
C2       C      0.33211      0.68518      0.73193     -0.07  
C3       C      0.35578      0.190759     0.24383     -0.058 
C3       C      0.85578      0.690759     0.24383     -0.058 
C3       C      0.85578      0.190759     0.74383     -0.058 
C3       C      0.35578      0.690759     0.74383     -0.058 
C1       C      0.37253      0.16918      0.24905      0.496 
C1       C      0.87253      0.669179     0.24905      0.496 
C1       C      0.87253      0.16918      0.74905      0.496 
C1       C      0.37253      0.669179     0.74905      0.496 
C2       C      0.35825      0.17522      0.24511     -0.07  
C2       C      0.85825      0.67522      0.24511     -0.07  
C2       C      0.85825      0.17522      0.74511     -0.07  
C2       C      0.35825      0.67522      0.74511     -0.07  
C3       C      0.33516      0.16968      0.23154     -0.058 
C3       C      0.83516      0.66968      0.23154     -0.058 
C3       C      0.83516      0.16968      0.73154     -0.058 
C3       C      0.33516      0.66968      0.73154     -0.058 
C3       C      0.34842      0.16458      0.23829     -0.058 
C3       C      0.84842      0.66458      0.23829     -0.058 
C3       C      0.84842      0.16458      0.73829     -0.058 
C3       C      0.34842      0.66458      0.73829     -0.058 
H1       H      0.6633       0.499673     0.0525054    0.108 
H1       H      0.1633       0.999673     0.0525054    0.108 
H1       H      0.1633       0.499673     0.552505     0.108 
H1       H      0.6633       0.999673     0.552505     0.108 
H1       H      0.156687     0.0263737    0.0587888    0.108 
H1       H      0.656687     0.526374     0.0587888    0.108 
H1       H      0.656687     0.0263737    0.558789     0.108 
H1       H      0.156687     0.526374     0.558789     0.108 
H1       H      0.317782     0.151732     0.184559     0.108 
H1       H      0.817782     0.651732     0.184559     0.108 
H1       H      0.817782     0.151732     0.684559     0.108 
H1       H      0.317782     0.651732     0.684559     0.108 
H1       H      0.335875     0.135871     0.169365     0.108 
H1       H      0.835875     0.635871     0.169365     0.108 
H1       H      0.835875     0.135871     0.669365     0.108 
H1       H      0.335875     0.635871     0.669365     0.108 
H1       H      0.118168     0.1789       0.152376     0.108 
H1       H      0.618168     0.6789       0.152376     0.108 
H1       H      0.618168     0.1789       0.652376     0.108 
H1       H      0.118168     0.6789       0.652376     0.108 
H1       H      0.773084     0.0393005    0.497154     0.108 
H1       H      0.273085     0.539301     0.497154     0.108 
H1       H      0.273085     0.0393005    0.997154     0.108 
H1       H      0.773084     0.539301     0.997154     0.108 
H1       H      0.327439     0.162162     0.226188     0.108 
H1       H      0.827439     0.662162     0.226188     0.108 
H1       H      0.827439     0.162162     0.726188     0.108 
H1       H      0.327439     0.662162     0.726188     0.108 
H1       H      0.35105      0.152826     0.238275     0.108 
H1       H      0.85105      0.652826     0.238275     0.108 
H1       H      0.85105      0.152826     0.738275     0.108 
H1       H      0.35105      0.652826     0.738275     0.108 
H1       H      0.34126      0.207413     0.234202     0.108 
H1       H      0.84126      0.707413     0.234202     0.108 
H1       H      0.84126      0.207413     0.734202     0.108 
H1       H      0.34126      0.707413     0.734202     0.108 
H1       H      0.363551     0.198741     0.248402     0.108 
H1       H      0.863551     0.698741     0.248402     0.108 
H1       H      0.863551     0.198741     0.748402     0.108 
H1       H      0.363551     0.698741     0.748402     0.108 
H1       H      0.43482      0.208052     0.187739     0.108 
H1       H      0.93482      0.708052     0.187739     0.108 
H1       H      0.93482      0.208052     0.687738     0.108 
H1       H      0.43482      0.708052     0.687738     0.108 
H1       H      0.398184     0.230042     0.210333     0.108 
H1       H      0.898184     0.730042     0.210333     0.108 
H1       H      0.898184     0.230042     0.710333     0.108 
H1       H      0.398184     0.730042     0.710333     0.108 
H1       H      0.380481     0.125009     0.210901     0.108 
H1       H      0.880481     0.625009     0.210901     0.108 
H1       H      0.880481     0.125009     0.710901     0.108 
H1       H      0.380481     0.625009     0.710901     0.108 
H1       H      0.375439     0.115095     0.184467     0.108 
H1       H      0.875439     0.615095     0.184467     0.108 
H1       H      0.875439     0.115095     0.684467     0.108 
H1       H      0.375439     0.615095     0.684467     0.108 
H1       H      0.414902     0.153        0.194271     0.108 
H1       H      0.914902     0.653        0.194271     0.108 
H1       H      0.914902     0.153        0.69427      0.108 
H1       H      0.414902     0.653        0.69427      0.108 
H1       H      0.412752     0.142242     0.168108     0.108 
H1       H      0.912752     0.642242     0.168108     0.108 
H1       H      0.912752     0.142242     0.668108     0.108 
H1       H      0.412752     0.642242     0.668108     0.108 
H1       H      0.257953     0.0813152    0.0124565    0.108 
H1       H      0.757953     0.581315     0.0124565    0.108 
H1       H      0.757953     0.0813152    0.512457     0.108 
H1       H      0.257953     0.581315     0.512457     0.108 
Cr1      Cr     0.90527      0.48709      0.0720105    1.619 
Cr1      Cr     0.40527      0.98709      0.0720105    1.619 
Cr1      Cr     0.40527      0.48709      0.57201      1.619 
Cr1      Cr     0.90527      0.98709      0.57201      1.619 
Cr2      Cr     0.1772       0.29154      0.20754      1.35  
Cr2      Cr     0.6772       0.79154      0.20754      1.35  
Cr2      Cr     0.6772       0.29154      0.70754      1.35  
Cr2      Cr     0.1772       0.79154      0.70754      1.35  
O2       O      0.14131      0.0696396    0.0901799   -0.574 
O2       O      0.64131      0.56964      0.0901799   -0.574 
O2       O      0.64131      0.0696396    0.59018     -0.574 
O2       O      0.14131      0.56964      0.59018     -0.574 
O3       O      0.1761       0.27354      0.19413     -0.438 
O3       O      0.6761       0.77354      0.19413     -0.438 
O3       O      0.6761       0.27354      0.69413     -0.438 
O3       O      0.1761       0.77354      0.69413     -0.438 
O2       O      0.161139     0.1993       0.17737     -0.574 
O2       O      0.661139     0.6993       0.17737     -0.574 
O2       O      0.661139     0.1993       0.67737     -0.574 
O2       O      0.161139     0.6993       0.67737     -0.574 
O2       O      0.27878      0.17932      0.22584     -0.574 
O2       O      0.77878      0.67932      0.22584     -0.574 
O2       O      0.77878      0.17932      0.72584     -0.574 
O2       O      0.27878      0.67932      0.72584     -0.574 
O2       O      0.28237      0.20477      0.22805     -0.574 
O2       O      0.78237      0.70477      0.22805     -0.574 
O2       O      0.78237      0.20477      0.72805     -0.574 
O2       O      0.28237      0.70477      0.72805     -0.574 
O2       O      0.42299      0.0195603    0.0743904   -0.574 
O2       O      0.92299      0.51956      0.0743904   -0.574 
O2       O      0.92299      0.0195603    0.57439     -0.574 
O2       O      0.42299      0.51956      0.57439     -0.574 
O2       O      0.41224      0.00307981   0.0599703   -0.574 
O2       O      0.912239     0.50308      0.0599703   -0.574 
O2       O      0.912239     0.00307981   0.55997     -0.574 
O2       O      0.41224      0.50308      0.55997     -0.574 
O3       O      0.412419     0.10124      0.0272097   -0.438 
O3       O      0.912419     0.60124      0.0272097   -0.438 
O3       O      0.912419     0.10124      0.52721     -0.438 
O3       O      0.412419     0.60124      0.52721     -0.438 
O2       O      0.392259     0.11549      0.0225298   -0.574 
O2       O      0.892259     0.61549      0.0225298   -0.574 
O2       O      0.892259     0.11549      0.52253     -0.574 
O2       O      0.392259     0.61549      0.52253     -0.574 
O3       O      0.39875      0.12448      0.10189     -0.438 
O3       O      0.89875      0.62448      0.10189     -0.438 
O3       O      0.89875      0.12448      0.60189     -0.438 
O3       O      0.39875      0.62448      0.60189     -0.438 
O2       O      0.37708      0.13369      0.0930696   -0.574 
O2       O      0.87708      0.63369      0.0930696   -0.574 
O2       O      0.87708      0.13369      0.59307     -0.574 
O2       O      0.37708      0.63369      0.59307     -0.574 
O3       O      0.30638      0.0780497    0.0591095   -0.438 
O3       O      0.80638      0.57805      0.0591095   -0.438 
O3       O      0.80638      0.0780497    0.559109    -0.438 
O3       O      0.30638      0.57805      0.559109    -0.438 
O2       O      0.35161      0.120559     0.10378     -0.574 
O2       O      0.85161      0.620559     0.10378     -0.574 
O2       O      0.85161      0.120559     0.60378     -0.574 
O2       O      0.35161      0.620559     0.60378     -0.574 
O2       O      0.31477      0.0462096    0.0237597   -0.574 
O2       O      0.81477      0.54621      0.0237597   -0.574 
O2       O      0.81477      0.0462096    0.52376     -0.574 
O2       O      0.31477      0.54621      0.52376     -0.574 
O3       O      0.31073      0.0694505    0.0308803   -0.438 
O3       O      0.81073      0.569449     0.0308803   -0.438 
O3       O      0.81073      0.0694505    0.53088     -0.438 
O3       O      0.31073      0.569449     0.53088     -0.438 
O2       O      0.88308      0.0727802    0.49336     -0.574 
O2       O      0.38308      0.57278      0.49336     -0.574 
O2       O      0.38308      0.0727802    0.99336     -0.574 
O2       O      0.88308      0.57278      0.99336     -0.574 
O2       O      0.37353      0.0952503    0.00338026  -0.574 
O2       O      0.87353      0.59525      0.00338026  -0.574 
O2       O      0.87353      0.0952503    0.50338     -0.574 
O2       O      0.37353      0.59525      0.50338     -0.574 
F1       F      0.15585      0.28913      0.211271    -0.547 
F1       F      0.65585      0.78913      0.211271    -0.547 
F1       F      0.65585      0.28913      0.711269    -0.547 
F1       F      0.15585      0.78913      0.711269    -0.547 
C3       C      0.1205       0.0693403    0.10929     -0.058 
C3       C      0.6205       0.56934      0.10929     -0.058 
C3       C      0.6205       0.0693403    0.60929     -0.058 
C3       C      0.1205       0.56934      0.60929     -0.058 
C3       C      0.16837      0.24493      0.188       -0.058 
C3       C      0.66837      0.74493      0.188       -0.058 
C3       C      0.66837      0.24493      0.688       -0.058 
C3       C      0.16837      0.74493      0.688       -0.058 
C3       C      0.164941     0.22948      0.1847      -0.058 
C3       C      0.664939     0.72948      0.1847      -0.058 
C3       C      0.664939     0.22948      0.6847      -0.058 
C3       C      0.164941     0.72948      0.6847      -0.058 
C3       C      0.26377      0.20309      0.25252     -0.058 
C3       C      0.76377      0.70309      0.25252     -0.058 
C3       C      0.76377      0.20309      0.75252     -0.058 
C3       C      0.26377      0.70309      0.75252     -0.058 
C1       C      0.274        0.19264      0.22967      0.496 
C1       C      0.774        0.69264      0.22967      0.496 
C1       C      0.774        0.19264      0.72967      0.496 
C1       C      0.274        0.69264      0.72967      0.496 
C2       C      0.26245      0.19264      0.2406      -0.07  
C2       C      0.76245      0.69264      0.2406      -0.07  
C2       C      0.76245      0.19264      0.7406      -0.07  
C2       C      0.26245      0.69264      0.7406      -0.07  
C3       C      0.25494      0.17859      0.24368     -0.058 
C3       C      0.75494      0.67859      0.24368     -0.058 
C3       C      0.75494      0.17859      0.74368     -0.058 
C3       C      0.25494      0.67859      0.74368     -0.058 
C3       C      0.428159     0.0407701    0.0523096   -0.058 
C3       C      0.928159     0.54077      0.0523096   -0.058 
C3       C      0.928159     0.0407701    0.55231     -0.058 
C3       C      0.428159     0.54077      0.55231     -0.058 
C1       C      0.41978      0.0154396    0.0613003    0.496 
C1       C      0.91978      0.51544      0.0613003    0.496 
C1       C      0.91978      0.0154396    0.5613       0.496 
C1       C      0.41978      0.51544      0.5613       0.496 
C2       C      0.41889      0.02741      0.0501795   -0.07  
C2       C      0.91889      0.52741      0.0501795   -0.07  
C2       C      0.91889      0.02741      0.550179    -0.07  
C2       C      0.41889      0.52741      0.550179    -0.07  
C3       C      0.4071       0.02803      0.0393298   -0.058 
C3       C      0.9071       0.52803      0.0393298   -0.058 
C3       C      0.9071       0.02803      0.53933     -0.058 
C3       C      0.4071       0.52803      0.53933     -0.058 
C3       C      0.40796      0.10653      0.0581598   -0.058 
C3       C      0.90796      0.60653      0.0581598   -0.058 
C3       C      0.90796      0.10653      0.55816     -0.058 
C3       C      0.40796      0.60653      0.55816     -0.058 
C1       C      0.40329      0.11156      0.0309197    0.496 
C1       C      0.90329      0.61156      0.0309197    0.496 
C1       C      0.90329      0.11156      0.53092      0.496 
C1       C      0.40329      0.61156      0.53092      0.496 
C2       C      0.40109      0.11496      0.0459598   -0.07  
C2       C      0.90109      0.61496      0.0459598   -0.07  
C2       C      0.90109      0.11496      0.54596     -0.07  
C2       C      0.40109      0.61496      0.54596     -0.07  
C3       C      0.40528      0.11117      0.0730997   -0.058 
C3       C      0.90528      0.61117      0.0730997   -0.058 
C3       C      0.90528      0.11117      0.5731      -0.058 
C3       C      0.40528      0.61117      0.5731      -0.058 
C1       C      0.389699     0.12691      0.0907099    0.496 
C1       C      0.889699     0.62691      0.0907099    0.496 
C1       C      0.889699     0.12691      0.59071      0.496 
C1       C      0.389699     0.62691      0.59071      0.496 
C2       C      0.39231      0.1205       0.0758904   -0.07  
C2       C      0.89231      0.6205       0.0758904   -0.07  
C2       C      0.89231      0.1205       0.57589     -0.07  
C2       C      0.39231      0.6205       0.57589     -0.07  
C3       C      0.38776      0.12254      0.0483599   -0.058 
C3       C      0.88776      0.62254      0.0483599   -0.058 
C3       C      0.88776      0.12254      0.54836     -0.058 
C3       C      0.38776      0.62254      0.54836     -0.058 
C3       C      0.38418      0.12689      0.0635002   -0.058 
C3       C      0.88418      0.62689      0.0635002   -0.058 
C3       C      0.88418      0.12689      0.5635      -0.058 
C3       C      0.38418      0.62689      0.5635      -0.058 
C3       C      0.32049      0.0952897    0.0767804   -0.058 
C3       C      0.82049      0.59529      0.0767804   -0.058 
C3       C      0.82049      0.0952897    0.57678     -0.058 
C3       C      0.32049      0.59529      0.57678     -0.058 
C3       C      0.33199      0.10355      0.0848496   -0.058 
C3       C      0.83199      0.60355      0.0848496   -0.058 
C3       C      0.83199      0.10355      0.58485     -0.058 
C3       C      0.33199      0.60355      0.58485     -0.058 
C3       C      0.34294      0.05429      0.0135503   -0.058 
C3       C      0.84294      0.55429      0.0135503   -0.058 
C3       C      0.84294      0.05429      0.51355     -0.058 
C3       C      0.34294      0.55429      0.51355     -0.058 
C1       C      0.318699     0.0598398    0.0246396    0.496 
C1       C      0.818699     0.55984      0.0246396    0.496 
C1       C      0.818699     0.0598398    0.52464      0.496 
C1       C      0.318699     0.55984      0.52464      0.496 
C2       C      0.33211      0.0648201    0.0180704   -0.07  
C2       C      0.83211      0.56482      0.0180704   -0.07  
C2       C      0.83211      0.0648201    0.51807     -0.07  
C2       C      0.33211      0.56482      0.51807     -0.07  
C3       C      0.35578      0.05924      0.00616976  -0.058 
C3       C      0.85578      0.55924      0.00616976  -0.058 
C3       C      0.85578      0.05924      0.50617     -0.058 
C3       C      0.35578      0.55924      0.50617     -0.058 
C1       C      0.37253      0.0808201    0.000949712  0.496 
C1       C      0.87253      0.58082      0.000949712  0.496 
C1       C      0.87253      0.0808201    0.50095      0.496 
C1       C      0.37253      0.58082      0.50095      0.496 
C2       C      0.35825      0.0747797    0.00489034  -0.07  
C2       C      0.85825      0.57478      0.00489034  -0.07  
C2       C      0.85825      0.0747797    0.50489     -0.07  
C2       C      0.35825      0.57478      0.50489     -0.07  
C3       C      0.33516      0.0803205    0.0184598   -0.058 
C3       C      0.83516      0.58032      0.0184598   -0.058 
C3       C      0.83516      0.0803205    0.51846     -0.058 
C3       C      0.33516      0.58032      0.51846     -0.058 
C3       C      0.34842      0.0854201    0.0117105   -0.058 
C3       C      0.84842      0.58542      0.0117105   -0.058 
C3       C      0.84842      0.0854201    0.51171     -0.058 
C3       C      0.34842      0.58542      0.51171     -0.058 
H1       H      0.1633       0.250328     0.197495     0.108 
H1       H      0.6633       0.750327     0.197495     0.108 
H1       H      0.6633       0.250328     0.697495     0.108 
H1       H      0.1633       0.750327     0.697495     0.108 
H1       H      0.156687     0.223627     0.191211     0.108 
H1       H      0.656687     0.723627     0.191211     0.108 
H1       H      0.656687     0.223627     0.691211     0.108 
H1       H      0.156687     0.723627     0.691211     0.108 
H1       H      0.317782     0.0982682    0.0654413    0.108 
H1       H      0.817782     0.598268     0.0654413    0.108 
H1       H      0.817782     0.0982682    0.565441     0.108 
H1       H      0.317782     0.598268     0.565441     0.108 
H1       H      0.335875     0.114129     0.0806355    0.108 
H1       H      0.835875     0.614129     0.0806355    0.108 
H1       H      0.835875     0.114129     0.580636     0.108 
H1       H      0.335875     0.614129     0.580636     0.108 
H1       H      0.118168     0.071099     0.0976246    0.108 
H1       H      0.618168     0.571099     0.0976246    0.108 
H1       H      0.618168     0.071099     0.597625     0.108 
H1       H      0.118168     0.571099     0.597625     0.108 
H1       H      0.273085     0.210699     0.252846     0.108 
H1       H      0.773084     0.710699     0.252846     0.108 
H1       H      0.773084     0.210699     0.752846     0.108 
H1       H      0.273085     0.710699     0.752846     0.108 
H1       H      0.327439     0.0878372    0.0238126    0.108 
H1       H      0.827439     0.587837     0.0238126    0.108 
H1       H      0.827439     0.0878372    0.523813     0.108 
H1       H      0.327439     0.587837     0.523813     0.108 
H1       H      0.35105      0.0971745    0.011724     0.108 
H1       H      0.85105      0.597174     0.011724     0.108 
H1       H      0.85105      0.0971745    0.511724     0.108 
H1       H      0.35105      0.597174     0.511724     0.108 
H1       H      0.34126      0.0425863    0.0157974    0.108 
H1       H      0.84126      0.542586     0.0157974    0.108 
H1       H      0.84126      0.0425863    0.515797     0.108 
H1       H      0.34126      0.542586     0.515797     0.108 
H1       H      0.363551     0.0512586    0.00159786   0.108 
H1       H      0.863551     0.551259     0.00159786   0.108 
H1       H      0.863551     0.0512586    0.501598     0.108 
H1       H      0.363551     0.551259     0.501598     0.108 
H1       H      0.43482      0.0419471    0.0622613    0.108 
H1       H      0.93482      0.541947     0.0622613    0.108 
H1       H      0.93482      0.0419471    0.562261     0.108 
H1       H      0.43482      0.541947     0.562261     0.108 
H1       H      0.398184     0.0199575    0.0396663    0.108 
H1       H      0.898184     0.519957     0.0396663    0.108 
H1       H      0.898184     0.0199575    0.539666     0.108 
H1       H      0.398184     0.519957     0.539666     0.108 
H1       H      0.380481     0.124991     0.039098     0.108 
H1       H      0.880481     0.624991     0.039098     0.108 
H1       H      0.880481     0.124991     0.539098     0.108 
H1       H      0.380481     0.624991     0.539098     0.108 
H1       H      0.375439     0.134905     0.0655324    0.108 
H1       H      0.875439     0.634905     0.0655324    0.108 
H1       H      0.875439     0.134905     0.565532     0.108 
H1       H      0.375439     0.634905     0.565532     0.108 
H1       H      0.414902     0.0970001    0.0557292    0.108 
H1       H      0.914902     0.597        0.0557292    0.108 
H1       H      0.914902     0.0970001    0.555729     0.108 
H1       H      0.414902     0.597        0.555729     0.108 
H1       H      0.412752     0.107759     0.0818913    0.108 
H1       H      0.912752     0.607759     0.0818913    0.108 
H1       H      0.912752     0.107759     0.581891     0.108 
H1       H      0.412752     0.607759     0.581891     0.108 
H1       H      0.257953     0.168684     0.237544     0.108 
H1       H      0.757953     0.668684     0.237544     0.108 
H1       H      0.757953     0.168684     0.737544     0.108 
H1       H      0.257953     0.668684     0.737544     0.108 
Cr1      Cr     0.34473      0.48709      0.17799      1.619 
Cr1      Cr     0.84473      0.98709      0.17799      1.619 
Cr1      Cr     0.84473      0.48709      0.67799      1.619 
Cr1      Cr     0.34473      0.98709      0.67799      1.619 
Cr2      Cr     0.0728004    0.29154      0.0424603    1.35  
Cr2      Cr     0.5728       0.79154      0.0424603    1.35  
Cr2      Cr     0.5728       0.29154      0.54246      1.35  
Cr2      Cr     0.0728004    0.79154      0.54246      1.35  
O2       O      0.10869      0.0696396    0.15982     -0.574 
O2       O      0.60869      0.56964      0.15982     -0.574 
O2       O      0.60869      0.0696396    0.65982     -0.574 
O2       O      0.10869      0.56964      0.65982     -0.574 
O3       O      0.0738998    0.27354      0.0558699   -0.438 
O3       O      0.5739       0.77354      0.0558699   -0.438 
O3       O      0.5739       0.27354      0.55587     -0.438 
O3       O      0.0738998    0.77354      0.55587     -0.438 
O2       O      0.08886      0.1993       0.0726305   -0.574 
O2       O      0.58886      0.6993       0.0726305   -0.574 
O2       O      0.58886      0.1993       0.572629    -0.574 
O2       O      0.08886      0.6993       0.572629    -0.574 
O2       O      0.971219     0.17932      0.0241603   -0.574 
O2       O      0.471219     0.67932      0.0241603   -0.574 
O2       O      0.471219     0.17932      0.52416     -0.574 
O2       O      0.971219     0.67932      0.52416     -0.574 
O3       O      0.96763      0.20477      0.0219503   -0.438 
O3       O      0.46763      0.70477      0.0219503   -0.438 
O3       O      0.46763      0.20477      0.52195     -0.438 
O3       O      0.96763      0.70477      0.52195     -0.438 
O2       O      0.827009     0.0195603    0.17561     -0.574 
O2       O      0.327009     0.51956      0.17561     -0.574 
O2       O      0.327009     0.0195603    0.67561     -0.574 
O2       O      0.827009     0.51956      0.67561     -0.574 
O2       O      0.83776      0.00307981   0.19003     -0.574 
O2       O      0.33776      0.50308      0.19003     -0.574 
O2       O      0.33776      0.00307981   0.69003     -0.574 
O2       O      0.83776      0.50308      0.69003     -0.574 
O2       O      0.83758      0.10124      0.22279     -0.574 
O2       O      0.33758      0.60124      0.22279     -0.574 
O2       O      0.33758      0.10124      0.72279     -0.574 
O2       O      0.83758      0.60124      0.72279     -0.574 
O3       O      0.85774      0.11549      0.22747     -0.438 
O3       O      0.35774      0.61549      0.22747     -0.438 
O3       O      0.35774      0.11549      0.72747     -0.438 
O3       O      0.85774      0.61549      0.72747     -0.438 
O3       O      0.85125      0.12448      0.14811     -0.438 
O3       O      0.35125      0.62448      0.14811     -0.438 
O3       O      0.35125      0.12448      0.64811     -0.438 
O3       O      0.85125      0.62448      0.64811     -0.438 
O2       O      0.87292      0.13369      0.15693     -0.574 
O2       O      0.37292      0.63369      0.15693     -0.574 
O2       O      0.37292      0.13369      0.65693     -0.574 
O2       O      0.87292      0.63369      0.65693     -0.574 
O2       O      0.94362      0.0780497    0.19089     -0.574 
O2       O      0.44362      0.57805      0.19089     -0.574 
O2       O      0.44362      0.0780497    0.69089     -0.574 
O2       O      0.94362      0.57805      0.69089     -0.574 
O2       O      0.89839      0.120559     0.14622     -0.574 
O2       O      0.39839      0.620559     0.14622     -0.574 
O2       O      0.39839      0.120559     0.64622     -0.574 
O2       O      0.89839      0.620559     0.64622     -0.574 
O3       O      0.935229     0.0462096    0.22624     -0.438 
O3       O      0.435231     0.54621      0.22624     -0.438 
O3       O      0.435231     0.0462096    0.72624     -0.438 
O3       O      0.935229     0.54621      0.72624     -0.438 
O2       O      0.93927      0.0694505    0.21912     -0.574 
O2       O      0.43927      0.569449     0.21912     -0.574 
O2       O      0.43927      0.0694505    0.71912     -0.574 
O2       O      0.93927      0.569449     0.71912     -0.574 
O2       O      0.86692      0.0727802    0.25664     -0.574 
O2       O      0.36692      0.57278      0.25664     -0.574 
O2       O      0.36692      0.0727802    0.75664     -0.574 
O2       O      0.86692      0.57278      0.75664     -0.574 
O3       O      0.87647      0.0952503    0.24662     -0.438 
O3       O      0.37647      0.59525      0.24662     -0.438 
O3       O      0.37647      0.0952503    0.74662     -0.438 
O3       O      0.87647      0.59525      0.74662     -0.438 
F1       F      0.0941498    0.28913      0.03873     -0.547 
F1       F      0.59415      0.78913      0.03873     -0.547 
F1       F      0.59415      0.28913      0.53873     -0.547 
F1       F      0.0941498    0.78913      0.53873     -0.547 
C3       C      0.1295       0.0693403    0.14071     -0.058 
C3       C      0.6295       0.56934      0.14071     -0.058 
C3       C      0.6295       0.0693403    0.64071     -0.058 
C3       C      0.1295       0.56934      0.64071     -0.058 
C3       C      0.0816303    0.24493      0.0620002   -0.058 
C3       C      0.58163      0.74493      0.0620002   -0.058 
C3       C      0.58163      0.24493      0.562       -0.058 
C3       C      0.0816303    0.74493      0.562       -0.058 
C3       C      0.08506      0.22948      0.0652995   -0.058 
C3       C      0.58506      0.72948      0.0652995   -0.058 
C3       C      0.58506      0.22948      0.565299    -0.058 
C3       C      0.08506      0.72948      0.565299    -0.058 
C3       C      0.48623      0.20309      0.497479    -0.058 
C3       C      0.98623      0.70309      0.497479    -0.058 
C3       C      0.98623      0.20309      0.997479    -0.058 
C3       C      0.48623      0.70309      0.997479    -0.058 
C1       C      0.976        0.19264      0.0203299    0.496 
C1       C      0.476        0.69264      0.0203299    0.496 
C1       C      0.476        0.19264      0.52033      0.496 
C1       C      0.976        0.69264      0.52033      0.496 
C2       C      0.98755      0.19264      0.00940035  -0.07  
C2       C      0.48755      0.69264      0.00940035  -0.07  
C2       C      0.48755      0.19264      0.5094      -0.07  
C2       C      0.98755      0.69264      0.5094      -0.07  
C3       C      0.99506      0.17859      0.00632054  -0.058 
C3       C      0.49506      0.67859      0.00632054  -0.058 
C3       C      0.49506      0.17859      0.506319    -0.058 
C3       C      0.99506      0.67859      0.506319    -0.058 
C3       C      0.82184      0.0407701    0.19769     -0.058 
C3       C      0.32184      0.54077      0.19769     -0.058 
C3       C      0.32184      0.0407701    0.69769     -0.058 
C3       C      0.82184      0.54077      0.69769     -0.058 
C1       C      0.83022      0.0154396    0.1887       0.496 
C1       C      0.33022      0.51544      0.1887       0.496 
C1       C      0.33022      0.0154396    0.6887       0.496 
C1       C      0.83022      0.51544      0.6887       0.496 
C2       C      0.83111      0.02741      0.19982     -0.07  
C2       C      0.33111      0.52741      0.19982     -0.07  
C2       C      0.33111      0.02741      0.69982     -0.07  
C2       C      0.83111      0.52741      0.69982     -0.07  
C3       C      0.8429       0.02803      0.21067     -0.058 
C3       C      0.3429       0.52803      0.21067     -0.058 
C3       C      0.3429       0.02803      0.71067     -0.058 
C3       C      0.8429       0.52803      0.71067     -0.058 
C3       C      0.842039     0.10653      0.19184     -0.058 
C3       C      0.342039     0.60653      0.19184     -0.058 
C3       C      0.342039     0.10653      0.69184     -0.058 
C3       C      0.842039     0.60653      0.69184     -0.058 
C1       C      0.84671      0.11156      0.21908      0.496 
C1       C      0.34671      0.61156      0.21908      0.496 
C1       C      0.34671      0.11156      0.71908      0.496 
C1       C      0.84671      0.61156      0.71908      0.496 
C2       C      0.84891      0.11496      0.20404     -0.07  
C2       C      0.34891      0.61496      0.20404     -0.07  
C2       C      0.34891      0.11496      0.70404     -0.07  
C2       C      0.84891      0.61496      0.70404     -0.07  
C3       C      0.84472      0.11117      0.1769      -0.058 
C3       C      0.34472      0.61117      0.1769      -0.058 
C3       C      0.34472      0.11117      0.6769      -0.058 
C3       C      0.84472      0.61117      0.6769      -0.058 
C1       C      0.8603       0.12691      0.15929      0.496 
C1       C      0.3603       0.62691      0.15929      0.496 
C1       C      0.3603       0.12691      0.65929      0.496 
C1       C      0.8603       0.62691      0.65929      0.496 
C2       C      0.857689     0.1205       0.17411     -0.07  
C2       C      0.357689     0.6205       0.17411     -0.07  
C2       C      0.357689     0.1205       0.67411     -0.07  
C2       C      0.857689     0.6205       0.67411     -0.07  
C3       C      0.86224      0.12254      0.201639    -0.058 
C3       C      0.36224      0.62254      0.201639    -0.058 
C3       C      0.36224      0.12254      0.701639    -0.058 
C3       C      0.86224      0.62254      0.701639    -0.058 
C3       C      0.865819     0.12689      0.1865      -0.058 
C3       C      0.36582      0.62689      0.1865      -0.058 
C3       C      0.36582      0.12689      0.6865      -0.058 
C3       C      0.865819     0.62689      0.6865      -0.058 
C3       C      0.92951      0.0952897    0.17322     -0.058 
C3       C      0.42951      0.59529      0.17322     -0.058 
C3       C      0.42951      0.0952897    0.67322     -0.058 
C3       C      0.92951      0.59529      0.67322     -0.058 
C3       C      0.91801      0.10355      0.16515     -0.058 
C3       C      0.41801      0.60355      0.16515     -0.058 
C3       C      0.41801      0.10355      0.66515     -0.058 
C3       C      0.91801      0.60355      0.66515     -0.058 
C3       C      0.90706      0.05429      0.23645     -0.058 
C3       C      0.40706      0.55429      0.23645     -0.058 
C3       C      0.40706      0.05429      0.73645     -0.058 
C3       C      0.90706      0.55429      0.73645     -0.058 
C1       C      0.9313       0.0598398    0.22536      0.496 
C1       C      0.4313       0.55984      0.22536      0.496 
C1       C      0.4313       0.0598398    0.72536      0.496 
C1       C      0.9313       0.55984      0.72536      0.496 
C2       C      0.91789      0.0648201    0.23193     -0.07  
C2       C      0.41789      0.56482      0.23193     -0.07  
C2       C      0.41789      0.0648201    0.73193     -0.07  
C2       C      0.91789      0.56482      0.73193     -0.07  
C3       C      0.89422      0.05924      0.24383     -0.058 
C3       C      0.39422      0.55924      0.24383     -0.058 
C3       C      0.39422      0.05924      0.74383     -0.058 
C3       C      0.89422      0.55924      0.74383     -0.058 
C1       C      0.87747      0.0808201    0.24905      0.496 
C1       C      0.37747      0.58082      0.24905      0.496 
C1       C      0.37747      0.0808201    0.74905      0.496 
C1       C      0.87747      0.58082      0.74905      0.496 
C2       C      0.89175      0.0747797    0.24511     -0.07  
C2       C      0.39175      0.57478      0.24511     -0.07  
C2       C      0.39175      0.0747797    0.74511     -0.07  
C2       C      0.89175      0.57478      0.74511     -0.07  
C3       C      0.91484      0.0803205    0.23154     -0.058 
C3       C      0.41484      0.58032      0.23154     -0.058 
C3       C      0.41484      0.0803205    0.73154     -0.058 
C3       C      0.91484      0.58032      0.73154     -0.058 
C3       C      0.90158      0.0854201    0.23829     -0.058 
C3       C      0.40158      0.58542      0.23829     -0.058 
C3       C      0.40158      0.0854201    0.73829     -0.058 
C3       C      0.90158      0.58542      0.73829     -0.058 
H1       H      0.0867006    0.250328     0.0525054    0.108 
H1       H      0.586701     0.750327     0.0525054    0.108 
H1       H      0.586701     0.250328     0.552505     0.108 
H1       H      0.0867006    0.750327     0.552505     0.108 
H1       H      0.0933138    0.223627     0.0587888    0.108 
H1       H      0.593314     0.723627     0.0587888    0.108 
H1       H      0.593314     0.223627     0.558789     0.108 
H1       H      0.0933138    0.723627     0.558789     0.108 
H1       H      0.932217     0.0982682    0.184559     0.108 
H1       H      0.432217     0.598268     0.184559     0.108 
H1       H      0.432217     0.0982682    0.684559     0.108 
H1       H      0.932217     0.598268     0.684559     0.108 
H1       H      0.914125     0.114129     0.169365     0.108 
H1       H      0.414125     0.614129     0.169365     0.108 
H1       H      0.414125     0.114129     0.669365     0.108 
H1       H      0.914125     0.614129     0.669365     0.108 
H1       H      0.131832     0.071099     0.152376     0.108 
H1       H      0.631832     0.571099     0.152376     0.108 
H1       H      0.631832     0.071099     0.652376     0.108 
H1       H      0.131832     0.571099     0.652376     0.108 
H1       H      0.476915     0.210699     0.497154     0.108 
H1       H      0.976915     0.710699     0.497154     0.108 
H1       H      0.976915     0.210699     0.997154     0.108 
H1       H      0.476915     0.710699     0.997154     0.108 
H1       H      0.92256      0.0878372    0.226188     0.108 
H1       H      0.42256      0.587837     0.226188     0.108 
H1       H      0.42256      0.0878372    0.726188     0.108 
H1       H      0.92256      0.587837     0.726188     0.108 
H1       H      0.89895      0.0971745    0.238275     0.108 
H1       H      0.39895      0.597174     0.238275     0.108 
H1       H      0.39895      0.0971745    0.738275     0.108 
H1       H      0.89895      0.597174     0.738275     0.108 
H1       H      0.90874      0.0425863    0.234202     0.108 
H1       H      0.40874      0.542586     0.234202     0.108 
H1       H      0.40874      0.0425863    0.734202     0.108 
H1       H      0.90874      0.542586     0.734202     0.108 
H1       H      0.886449     0.0512586    0.248402     0.108 
H1       H      0.386449     0.551259     0.248402     0.108 
H1       H      0.386449     0.0512586    0.748402     0.108 
H1       H      0.886449     0.551259     0.748402     0.108 
H1       H      0.81518      0.0419471    0.187739     0.108 
H1       H      0.31518      0.541947     0.187739     0.108 
H1       H      0.31518      0.0419471    0.687738     0.108 
H1       H      0.81518      0.541947     0.687738     0.108 
H1       H      0.851816     0.0199575    0.210333     0.108 
H1       H      0.351816     0.519957     0.210333     0.108 
H1       H      0.351816     0.0199575    0.710333     0.108 
H1       H      0.851816     0.519957     0.710333     0.108 
H1       H      0.869518     0.124991     0.210901     0.108 
H1       H      0.369518     0.624991     0.210901     0.108 
H1       H      0.369518     0.124991     0.710901     0.108 
H1       H      0.869518     0.624991     0.710901     0.108 
H1       H      0.87456      0.134905     0.184467     0.108 
H1       H      0.37456      0.634905     0.184467     0.108 
H1       H      0.37456      0.134905     0.684467     0.108 
H1       H      0.87456      0.634905     0.684467     0.108 
H1       H      0.835099     0.0970001    0.194271     0.108 
H1       H      0.335099     0.597        0.194271     0.108 
H1       H      0.335099     0.0970001    0.69427      0.108 
H1       H      0.835099     0.597        0.69427      0.108 
H1       H      0.837247     0.107759     0.168108     0.108 
H1       H      0.337247     0.607759     0.168108     0.108 
H1       H      0.337247     0.107759     0.668108     0.108 
H1       H      0.837247     0.607759     0.668108     0.108 
H1       H      0.992047     0.168684     0.0124565    0.108 
H1       H      0.492047     0.668684     0.0124565    0.108 
H1       H      0.492047     0.168684     0.512457     0.108 
H1       H      0.992047     0.668684     0.512457     0.108 
Cr1      Cr     0.262909     0.17799      0.40527      1.619 
Cr1      Cr     0.762909     0.67799      0.40527      1.619 
Cr1      Cr     0.762909     0.17799      0.90527      1.619 
Cr1      Cr     0.262909     0.67799      0.90527      1.619 
Cr1      Cr     0.95846      0.0424603    0.1772       1.619 
Cr1      Cr     0.45846      0.54246      0.1772       1.619 
Cr1      Cr     0.45846      0.0424603    0.6772       1.619 
Cr1      Cr     0.95846      0.54246      0.6772       1.619 
O2       O      0.18036      0.15982      0.14131     -0.574 
O2       O      0.68036      0.65982      0.14131     -0.574 
O2       O      0.68036      0.15982      0.64131     -0.574 
O2       O      0.18036      0.65982      0.64131     -0.574 
O2       O      0.97646      0.0558699    0.1761      -0.574 
O2       O      0.47646      0.55587      0.1761      -0.574 
O2       O      0.47646      0.0558699    0.6761      -0.574 
O2       O      0.97646      0.55587      0.6761      -0.574 
O2       O      0.0507005    0.0726305    0.161139    -0.574 
O2       O      0.5507       0.572629     0.161139    -0.574 
O2       O      0.5507       0.0726305    0.661139    -0.574 
O2       O      0.0507005    0.572629     0.661139    -0.574 
O3       O      0.0706804    0.0241603    0.27878     -0.438 
O3       O      0.57068      0.52416      0.27878     -0.438 
O3       O      0.57068      0.0241603    0.77878     -0.438 
O3       O      0.0706804    0.52416      0.77878     -0.438 
O2       O      0.0452295    0.0219503    0.28237     -0.574 
O2       O      0.545229     0.52195      0.28237     -0.574 
O2       O      0.545229     0.0219503    0.78237     -0.574 
O2       O      0.0452295    0.52195      0.78237     -0.574 
O2       O      0.23044      0.17561      0.42299     -0.574 
O2       O      0.73044      0.67561      0.42299     -0.574 
O2       O      0.73044      0.17561      0.92299     -0.574 
O2       O      0.23044      0.67561      0.92299     -0.574 
O2       O      0.24692      0.19003      0.41224     -0.574 
O2       O      0.74692      0.69003      0.41224     -0.574 
O2       O      0.74692      0.19003      0.912239    -0.574 
O2       O      0.24692      0.69003      0.912239    -0.574 
O3       O      0.148759     0.22279      0.412419    -0.438 
O3       O      0.648759     0.72279      0.412419    -0.438 
O3       O      0.648759     0.22279      0.912419    -0.438 
O3       O      0.148759     0.72279      0.912419    -0.438 
O2       O      0.13451      0.22747      0.392259    -0.574 
O2       O      0.63451      0.72747      0.392259    -0.574 
O2       O      0.63451      0.22747      0.892259    -0.574 
O2       O      0.13451      0.72747      0.892259    -0.574 
O2       O      0.12552      0.14811      0.39875     -0.574 
O2       O      0.62552      0.64811      0.39875     -0.574 
O2       O      0.62552      0.14811      0.89875     -0.574 
O2       O      0.12552      0.64811      0.89875     -0.574 
O3       O      0.116311     0.15693      0.37708     -0.438 
O3       O      0.616309     0.65693      0.37708     -0.438 
O3       O      0.616309     0.15693      0.87708     -0.438 
O3       O      0.116311     0.65693      0.87708     -0.438 
O2       O      0.17195      0.19089      0.30638     -0.574 
O2       O      0.67195      0.69089      0.30638     -0.574 
O2       O      0.67195      0.19089      0.80638     -0.574 
O2       O      0.17195      0.69089      0.80638     -0.574 
O3       O      0.12944      0.14622      0.35161     -0.438 
O3       O      0.62944      0.64622      0.35161     -0.438 
O3       O      0.62944      0.14622      0.85161     -0.438 
O3       O      0.12944      0.64622      0.85161     -0.438 
O3       O      0.20379      0.22624      0.31477     -0.438 
O3       O      0.70379      0.72624      0.31477     -0.438 
O3       O      0.70379      0.22624      0.81477     -0.438 
O3       O      0.20379      0.72624      0.81477     -0.438 
O2       O      0.18055      0.21912      0.31073     -0.574 
O2       O      0.68055      0.71912      0.31073     -0.574 
O2       O      0.68055      0.21912      0.81073     -0.574 
O2       O      0.18055      0.71912      0.81073     -0.574 
O2       O      0.17722      0.25664      0.38308     -0.574 
O2       O      0.67722      0.75664      0.38308     -0.574 
O2       O      0.67722      0.25664      0.88308     -0.574 
O2       O      0.17722      0.75664      0.88308     -0.574 
O2       O      0.15475      0.24662      0.37353     -0.574 
O2       O      0.65475      0.74662      0.37353     -0.574 
O2       O      0.65475      0.24662      0.87353     -0.574 
O2       O      0.15475      0.74662      0.87353     -0.574 
C3       C      0.18066      0.14071      0.1205      -0.058 
C3       C      0.68066      0.64071      0.1205      -0.058 
C3       C      0.68066      0.14071      0.6205      -0.058 
C3       C      0.18066      0.64071      0.6205      -0.058 
C3       C      0.00507038   0.0620002    0.16837     -0.058 
C3       C      0.50507      0.562        0.16837     -0.058 
C3       C      0.50507      0.0620002    0.66837     -0.058 
C3       C      0.00507038   0.562        0.66837     -0.058 
C3       C      0.0205201    0.0652995    0.164941    -0.058 
C3       C      0.52052      0.565299     0.164941    -0.058 
C3       C      0.52052      0.0652995    0.664939    -0.058 
C3       C      0.0205201    0.565299     0.664939    -0.058 
C3       C      0.546909     0.497479     0.26377     -0.058 
C3       C      0.0469095    0.997479     0.26377     -0.058 
C3       C      0.0469095    0.497479     0.76377     -0.058 
C3       C      0.546909     0.997479     0.76377     -0.058 
C1       C      0.0573597    0.0203299    0.274        0.496 
C1       C      0.55736      0.52033      0.274        0.496 
C1       C      0.55736      0.0203299    0.774        0.496 
C1       C      0.0573597    0.52033      0.774        0.496 
C2       C      0.0573597    0.00940035   0.26245     -0.07  
C2       C      0.55736      0.5094       0.26245     -0.07  
C2       C      0.55736      0.00940035   0.76245     -0.07  
C2       C      0.0573597    0.5094       0.76245     -0.07  
C3       C      0.0714096    0.00632054   0.25494     -0.058 
C3       C      0.57141      0.506319     0.25494     -0.058 
C3       C      0.57141      0.00632054   0.75494     -0.058 
C3       C      0.0714096    0.506319     0.75494     -0.058 
C3       C      0.20923      0.19769      0.428159    -0.058 
C3       C      0.709229     0.69769      0.428159    -0.058 
C3       C      0.709229     0.19769      0.928159    -0.058 
C3       C      0.20923      0.69769      0.928159    -0.058 
C1       C      0.23456      0.1887       0.41978      0.496 
C1       C      0.73456      0.6887       0.41978      0.496 
C1       C      0.73456      0.1887       0.91978      0.496 
C1       C      0.23456      0.6887       0.91978      0.496 
C2       C      0.222589     0.19982      0.41889     -0.07  
C2       C      0.722589     0.69982      0.41889     -0.07  
C2       C      0.722589     0.19982      0.91889     -0.07  
C2       C      0.222589     0.69982      0.91889     -0.07  
C3       C      0.221969     0.21067      0.4071      -0.058 
C3       C      0.721969     0.71067      0.4071      -0.058 
C3       C      0.721969     0.21067      0.9071      -0.058 
C3       C      0.221969     0.71067      0.9071      -0.058 
C3       C      0.14347      0.19184      0.40796     -0.058 
C3       C      0.64347      0.69184      0.40796     -0.058 
C3       C      0.64347      0.19184      0.90796     -0.058 
C3       C      0.14347      0.69184      0.90796     -0.058 
C1       C      0.13844      0.21908      0.40329      0.496 
C1       C      0.63844      0.71908      0.40329      0.496 
C1       C      0.63844      0.21908      0.90329      0.496 
C1       C      0.13844      0.71908      0.90329      0.496 
C2       C      0.13504      0.20404      0.40109     -0.07  
C2       C      0.63504      0.70404      0.40109     -0.07  
C2       C      0.63504      0.20404      0.90109     -0.07  
C2       C      0.13504      0.70404      0.90109     -0.07  
C3       C      0.13883      0.1769       0.40528     -0.058 
C3       C      0.63883      0.6769       0.40528     -0.058 
C3       C      0.63883      0.1769       0.90528     -0.058 
C3       C      0.13883      0.6769       0.90528     -0.058 
C1       C      0.12309      0.15929      0.389699     0.496 
C1       C      0.62309      0.65929      0.389699     0.496 
C1       C      0.62309      0.15929      0.889699     0.496 
C1       C      0.12309      0.65929      0.889699     0.496 
C2       C      0.1295       0.17411      0.39231     -0.07  
C2       C      0.6295       0.67411      0.39231     -0.07  
C2       C      0.6295       0.17411      0.89231     -0.07  
C2       C      0.1295       0.67411      0.89231     -0.07  
C3       C      0.12746      0.201639     0.38776     -0.058 
C3       C      0.62746      0.701639     0.38776     -0.058 
C3       C      0.62746      0.201639     0.88776     -0.058 
C3       C      0.12746      0.701639     0.88776     -0.058 
C3       C      0.12311      0.1865       0.38418     -0.058 
C3       C      0.62311      0.6865       0.38418     -0.058 
C3       C      0.62311      0.1865       0.88418     -0.058 
C3       C      0.12311      0.6865       0.88418     -0.058 
C3       C      0.15471      0.17322      0.32049     -0.058 
C3       C      0.65471      0.67322      0.32049     -0.058 
C3       C      0.65471      0.17322      0.82049     -0.058 
C3       C      0.15471      0.67322      0.82049     -0.058 
C3       C      0.14645      0.16515      0.33199     -0.058 
C3       C      0.64645      0.66515      0.33199     -0.058 
C3       C      0.64645      0.16515      0.83199     -0.058 
C3       C      0.14645      0.66515      0.83199     -0.058 
C3       C      0.195709     0.23645      0.34294     -0.058 
C3       C      0.695709     0.73645      0.34294     -0.058 
C3       C      0.695709     0.23645      0.84294     -0.058 
C3       C      0.195709     0.73645      0.84294     -0.058 
C1       C      0.19016      0.22536      0.318699     0.496 
C1       C      0.69016      0.72536      0.318699     0.496 
C1       C      0.69016      0.22536      0.818699     0.496 
C1       C      0.19016      0.72536      0.818699     0.496 
C2       C      0.18518      0.23193      0.33211     -0.07  
C2       C      0.68518      0.73193      0.33211     -0.07  
C2       C      0.68518      0.23193      0.83211     -0.07  
C2       C      0.18518      0.73193      0.83211     -0.07  
C3       C      0.190759     0.24383      0.35578     -0.058 
C3       C      0.690759     0.74383      0.35578     -0.058 
C3       C      0.690759     0.24383      0.85578     -0.058 
C3       C      0.190759     0.74383      0.85578     -0.058 
C1       C      0.16918      0.24905      0.37253      0.496 
C1       C      0.669179     0.74905      0.37253      0.496 
C1       C      0.669179     0.24905      0.87253      0.496 
C1       C      0.16918      0.74905      0.87253      0.496 
C2       C      0.17522      0.24511      0.35825     -0.07  
C2       C      0.67522      0.74511      0.35825     -0.07  
C2       C      0.67522      0.24511      0.85825     -0.07  
C2       C      0.17522      0.74511      0.85825     -0.07  
C3       C      0.16968      0.23154      0.33516     -0.058 
C3       C      0.66968      0.73154      0.33516     -0.058 
C3       C      0.66968      0.23154      0.83516     -0.058 
C3       C      0.16968      0.73154      0.83516     -0.058 
C3       C      0.16458      0.23829      0.34842     -0.058 
C3       C      0.66458      0.73829      0.34842     -0.058 
C3       C      0.66458      0.23829      0.84842     -0.058 
C3       C      0.16458      0.73829      0.84842     -0.058 
H1       H      0.999673     0.0525054    0.1633       0.108 
H1       H      0.499673     0.552505     0.1633       0.108 
H1       H      0.499673     0.0525054    0.6633       0.108 
H1       H      0.999673     0.552505     0.6633       0.108 
H1       H      0.0263737    0.0587888    0.156687     0.108 
H1       H      0.526374     0.558789     0.156687     0.108 
H1       H      0.526374     0.0587888    0.656687     0.108 
H1       H      0.0263737    0.558789     0.656687     0.108 
H1       H      0.151732     0.184559     0.317782     0.108 
H1       H      0.651732     0.684559     0.317782     0.108 
H1       H      0.651732     0.184559     0.817782     0.108 
H1       H      0.151732     0.684559     0.817782     0.108 
H1       H      0.135871     0.169365     0.335875     0.108 
H1       H      0.635871     0.669365     0.335875     0.108 
H1       H      0.635871     0.169365     0.835875     0.108 
H1       H      0.135871     0.669365     0.835875     0.108 
H1       H      0.1789       0.152376     0.118168     0.108 
H1       H      0.6789       0.652376     0.118168     0.108 
H1       H      0.6789       0.152376     0.618168     0.108 
H1       H      0.1789       0.652376     0.618168     0.108 
H1       H      0.539301     0.497154     0.273085     0.108 
H1       H      0.0393005    0.997154     0.273085     0.108 
H1       H      0.0393005    0.497154     0.773084     0.108 
H1       H      0.539301     0.997154     0.773084     0.108 
H1       H      0.162162     0.226188     0.327439     0.108 
H1       H      0.662162     0.726188     0.327439     0.108 
H1       H      0.662162     0.226188     0.827439     0.108 
H1       H      0.162162     0.726188     0.827439     0.108 
H1       H      0.152826     0.238275     0.35105      0.108 
H1       H      0.652826     0.738275     0.35105      0.108 
H1       H      0.652826     0.238275     0.85105      0.108 
H1       H      0.152826     0.738275     0.85105      0.108 
H1       H      0.207413     0.234202     0.34126      0.108 
H1       H      0.707413     0.734202     0.34126      0.108 
H1       H      0.707413     0.234202     0.84126      0.108 
H1       H      0.207413     0.734202     0.84126      0.108 
H1       H      0.198741     0.248402     0.363551     0.108 
H1       H      0.698741     0.748402     0.363551     0.108 
H1       H      0.698741     0.248402     0.863551     0.108 
H1       H      0.198741     0.748402     0.863551     0.108 
H1       H      0.208052     0.187739     0.43482      0.108 
H1       H      0.708052     0.687738     0.43482      0.108 
H1       H      0.708052     0.187739     0.93482      0.108 
H1       H      0.208052     0.687738     0.93482      0.108 
H1       H      0.230042     0.210333     0.398184     0.108 
H1       H      0.730042     0.710333     0.398184     0.108 
H1       H      0.730042     0.210333     0.898184     0.108 
H1       H      0.230042     0.710333     0.898184     0.108 
H1       H      0.125009     0.210901     0.380481     0.108 
H1       H      0.625009     0.710901     0.380481     0.108 
H1       H      0.625009     0.210901     0.880481     0.108 
H1       H      0.125009     0.710901     0.880481     0.108 
H1       H      0.115095     0.184467     0.375439     0.108 
H1       H      0.615095     0.684467     0.375439     0.108 
H1       H      0.615095     0.184467     0.875439     0.108 
H1       H      0.115095     0.684467     0.875439     0.108 
H1       H      0.153        0.194271     0.414902     0.108 
H1       H      0.653        0.69427      0.414902     0.108 
H1       H      0.653        0.194271     0.914902     0.108 
H1       H      0.153        0.69427      0.914902     0.108 
H1       H      0.142242     0.168108     0.412752     0.108 
H1       H      0.642242     0.668108     0.412752     0.108 
H1       H      0.642242     0.168108     0.912752     0.108 
H1       H      0.142242     0.668108     0.912752     0.108 
H1       H      0.0813152    0.0124565    0.257953     0.108 
H1       H      0.581315     0.512457     0.257953     0.108 
H1       H      0.581315     0.0124565    0.757953     0.108 
H1       H      0.0813152    0.512457     0.757953     0.108 
Cr1      Cr     0.762909     0.0720105    0.34473      1.619 
Cr1      Cr     0.262909     0.57201      0.34473      1.619 
Cr1      Cr     0.262909     0.0720105    0.84473      1.619 
Cr1      Cr     0.762909     0.57201      0.84473      1.619 
Cr1      Cr     0.95846      0.20754      0.0728004    1.619 
Cr1      Cr     0.45846      0.70754      0.0728004    1.619 
Cr1      Cr     0.45846      0.20754      0.5728       1.619 
Cr1      Cr     0.95846      0.70754      0.5728       1.619 
O2       O      0.18036      0.0901799    0.10869     -0.574 
O2       O      0.68036      0.59018      0.10869     -0.574 
O2       O      0.68036      0.0901799    0.60869     -0.574 
O2       O      0.18036      0.59018      0.60869     -0.574 
O2       O      0.97646      0.19413      0.0738998   -0.574 
O2       O      0.47646      0.69413      0.0738998   -0.574 
O2       O      0.47646      0.19413      0.5739      -0.574 
O2       O      0.97646      0.69413      0.5739      -0.574 
O3       O      0.0507005    0.17737      0.08886     -0.438 
O3       O      0.5507       0.67737      0.08886     -0.438 
O3       O      0.5507       0.17737      0.58886     -0.438 
O3       O      0.0507005    0.67737      0.58886     -0.438 
O2       O      0.57068      0.22584      0.471219    -0.574 
O2       O      0.0706804    0.72584      0.471219    -0.574 
O2       O      0.0706804    0.22584      0.971219    -0.574 
O2       O      0.57068      0.72584      0.971219    -0.574 
O2       O      0.545229     0.22805      0.46763     -0.574 
O2       O      0.0452295    0.72805      0.46763     -0.574 
O2       O      0.0452295    0.22805      0.96763     -0.574 
O2       O      0.545229     0.72805      0.96763     -0.574 
O3       O      0.73044      0.0743904    0.327009    -0.438 
O3       O      0.23044      0.57439      0.327009    -0.438 
O3       O      0.23044      0.0743904    0.827009    -0.438 
O3       O      0.73044      0.57439      0.827009    -0.438 
O2       O      0.74692      0.0599703    0.33776     -0.574 
O2       O      0.24692      0.55997      0.33776     -0.574 
O2       O      0.24692      0.0599703    0.83776     -0.574 
O2       O      0.74692      0.55997      0.83776     -0.574 
O2       O      0.648759     0.0272097    0.33758     -0.574 
O2       O      0.148759     0.52721      0.33758     -0.574 
O2       O      0.148759     0.0272097    0.83758     -0.574 
O2       O      0.648759     0.52721      0.83758     -0.574 
O2       O      0.63451      0.0225298    0.35774     -0.574 
O2       O      0.13451      0.52253      0.35774     -0.574 
O2       O      0.13451      0.0225298    0.85774     -0.574 
O2       O      0.63451      0.52253      0.85774     -0.574 
O2       O      0.62552      0.10189      0.35125     -0.574 
O2       O      0.12552      0.60189      0.35125     -0.574 
O2       O      0.12552      0.10189      0.85125     -0.574 
O2       O      0.62552      0.60189      0.85125     -0.574 
O2       O      0.616309     0.0930696    0.37292     -0.574 
O2       O      0.116311     0.59307      0.37292     -0.574 
O2       O      0.116311     0.0930696    0.87292     -0.574 
O2       O      0.616309     0.59307      0.87292     -0.574 
O3       O      0.67195      0.0591095    0.44362     -0.438 
O3       O      0.17195      0.559109     0.44362     -0.438 
O3       O      0.17195      0.0591095    0.94362     -0.438 
O3       O      0.67195      0.559109     0.94362     -0.438 
O2       O      0.62944      0.10378      0.39839     -0.574 
O2       O      0.12944      0.60378      0.39839     -0.574 
O2       O      0.12944      0.10378      0.89839     -0.574 
O2       O      0.62944      0.60378      0.89839     -0.574 
O2       O      0.70379      0.0237597    0.435231    -0.574 
O2       O      0.20379      0.52376      0.435231    -0.574 
O2       O      0.20379      0.0237597    0.935229    -0.574 
O2       O      0.70379      0.52376      0.935229    -0.574 
O3       O      0.68055      0.0308803    0.43927     -0.438 
O3       O      0.18055      0.53088      0.43927     -0.438 
O3       O      0.18055      0.0308803    0.93927     -0.438 
O3       O      0.68055      0.53088      0.93927     -0.438 
O3       O      0.17722      0.49336      0.36692     -0.438 
O3       O      0.67722      0.99336      0.36692     -0.438 
O3       O      0.67722      0.49336      0.86692     -0.438 
O3       O      0.17722      0.99336      0.86692     -0.438 
O2       O      0.65475      0.00338026   0.37647     -0.574 
O2       O      0.15475      0.50338      0.37647     -0.574 
O2       O      0.15475      0.00338026   0.87647     -0.574 
O2       O      0.65475      0.50338      0.87647     -0.574 
C3       C      0.18066      0.10929      0.1295      -0.058 
C3       C      0.68066      0.60929      0.1295      -0.058 
C3       C      0.68066      0.10929      0.6295      -0.058 
C3       C      0.18066      0.60929      0.6295      -0.058 
C3       C      0.00507038   0.188        0.0816303   -0.058 
C3       C      0.50507      0.688        0.0816303   -0.058 
C3       C      0.50507      0.188        0.58163     -0.058 
C3       C      0.00507038   0.688        0.58163     -0.058 
C3       C      0.0205201    0.1847       0.08506     -0.058 
C3       C      0.52052      0.6847       0.08506     -0.058 
C3       C      0.52052      0.1847       0.58506     -0.058 
C3       C      0.0205201    0.6847       0.58506     -0.058 
C3       C      0.546909     0.25252      0.48623     -0.058 
C3       C      0.0469095    0.75252      0.48623     -0.058 
C3       C      0.0469095    0.25252      0.98623     -0.058 
C3       C      0.546909     0.75252      0.98623     -0.058 
C1       C      0.55736      0.22967      0.476        0.496 
C1       C      0.0573597    0.72967      0.476        0.496 
C1       C      0.0573597    0.22967      0.976        0.496 
C1       C      0.55736      0.72967      0.976        0.496 
C2       C      0.55736      0.2406       0.48755     -0.07  
C2       C      0.0573597    0.7406       0.48755     -0.07  
C2       C      0.0573597    0.2406       0.98755     -0.07  
C2       C      0.55736      0.7406       0.98755     -0.07  
C3       C      0.57141      0.24368      0.49506     -0.058 
C3       C      0.0714096    0.74368      0.49506     -0.058 
C3       C      0.0714096    0.24368      0.99506     -0.058 
C3       C      0.57141      0.74368      0.99506     -0.058 
C3       C      0.709229     0.0523096    0.32184     -0.058 
C3       C      0.20923      0.55231      0.32184     -0.058 
C3       C      0.20923      0.0523096    0.82184     -0.058 
C3       C      0.709229     0.55231      0.82184     -0.058 
C1       C      0.73456      0.0613003    0.33022      0.496 
C1       C      0.23456      0.5613       0.33022      0.496 
C1       C      0.23456      0.0613003    0.83022      0.496 
C1       C      0.73456      0.5613       0.83022      0.496 
C2       C      0.722589     0.0501795    0.33111     -0.07  
C2       C      0.222589     0.550179     0.33111     -0.07  
C2       C      0.222589     0.0501795    0.83111     -0.07  
C2       C      0.722589     0.550179     0.83111     -0.07  
C3       C      0.721969     0.0393298    0.3429      -0.058 
C3       C      0.221969     0.53933      0.3429      -0.058 
C3       C      0.221969     0.0393298    0.8429      -0.058 
C3       C      0.721969     0.53933      0.8429      -0.058 
C3       C      0.64347      0.0581598    0.342039    -0.058 
C3       C      0.14347      0.55816      0.342039    -0.058 
C3       C      0.14347      0.0581598    0.842039    -0.058 
C3       C      0.64347      0.55816      0.842039    -0.058 
C1       C      0.63844      0.0309197    0.34671      0.496 
C1       C      0.13844      0.53092      0.34671      0.496 
C1       C      0.13844      0.0309197    0.84671      0.496 
C1       C      0.63844      0.53092      0.84671      0.496 
C2       C      0.63504      0.0459598    0.34891     -0.07  
C2       C      0.13504      0.54596      0.34891     -0.07  
C2       C      0.13504      0.0459598    0.84891     -0.07  
C2       C      0.63504      0.54596      0.84891     -0.07  
C3       C      0.63883      0.0730997    0.34472     -0.058 
C3       C      0.13883      0.5731       0.34472     -0.058 
C3       C      0.13883      0.0730997    0.84472     -0.058 
C3       C      0.63883      0.5731       0.84472     -0.058 
C1       C      0.62309      0.0907099    0.3603       0.496 
C1       C      0.12309      0.59071      0.3603       0.496 
C1       C      0.12309      0.0907099    0.8603       0.496 
C1       C      0.62309      0.59071      0.8603       0.496 
C2       C      0.6295       0.0758904    0.357689    -0.07  
C2       C      0.1295       0.57589      0.357689    -0.07  
C2       C      0.1295       0.0758904    0.857689    -0.07  
C2       C      0.6295       0.57589      0.857689    -0.07  
C3       C      0.62746      0.0483599    0.36224     -0.058 
C3       C      0.12746      0.54836      0.36224     -0.058 
C3       C      0.12746      0.0483599    0.86224     -0.058 
C3       C      0.62746      0.54836      0.86224     -0.058 
C3       C      0.62311      0.0635002    0.36582     -0.058 
C3       C      0.12311      0.5635       0.36582     -0.058 
C3       C      0.12311      0.0635002    0.865819    -0.058 
C3       C      0.62311      0.5635       0.865819    -0.058 
C3       C      0.65471      0.0767804    0.42951     -0.058 
C3       C      0.15471      0.57678      0.42951     -0.058 
C3       C      0.15471      0.0767804    0.92951     -0.058 
C3       C      0.65471      0.57678      0.92951     -0.058 
C3       C      0.64645      0.0848496    0.41801     -0.058 
C3       C      0.14645      0.58485      0.41801     -0.058 
C3       C      0.14645      0.0848496    0.91801     -0.058 
C3       C      0.64645      0.58485      0.91801     -0.058 
C3       C      0.695709     0.0135503    0.40706     -0.058 
C3       C      0.195709     0.51355      0.40706     -0.058 
C3       C      0.195709     0.0135503    0.90706     -0.058 
C3       C      0.695709     0.51355      0.90706     -0.058 
C1       C      0.69016      0.0246396    0.4313       0.496 
C1       C      0.19016      0.52464      0.4313       0.496 
C1       C      0.19016      0.0246396    0.9313       0.496 
C1       C      0.69016      0.52464      0.9313       0.496 
C2       C      0.68518      0.0180704    0.41789     -0.07  
C2       C      0.18518      0.51807      0.41789     -0.07  
C2       C      0.18518      0.0180704    0.91789     -0.07  
C2       C      0.68518      0.51807      0.91789     -0.07  
C3       C      0.690759     0.00616976   0.39422     -0.058 
C3       C      0.190759     0.50617      0.39422     -0.058 
C3       C      0.190759     0.00616976   0.89422     -0.058 
C3       C      0.690759     0.50617      0.89422     -0.058 
C1       C      0.669179     0.000949712  0.37747      0.496 
C1       C      0.16918      0.50095      0.37747      0.496 
C1       C      0.16918      0.000949712  0.87747      0.496 
C1       C      0.669179     0.50095      0.87747      0.496 
C2       C      0.67522      0.00489034   0.39175     -0.07  
C2       C      0.17522      0.50489      0.39175     -0.07  
C2       C      0.17522      0.00489034   0.89175     -0.07  
C2       C      0.67522      0.50489      0.89175     -0.07  
C3       C      0.66968      0.0184598    0.41484     -0.058 
C3       C      0.16968      0.51846      0.41484     -0.058 
C3       C      0.16968      0.0184598    0.91484     -0.058 
C3       C      0.66968      0.51846      0.91484     -0.058 
C3       C      0.66458      0.0117105    0.40158     -0.058 
C3       C      0.16458      0.51171      0.40158     -0.058 
C3       C      0.16458      0.0117105    0.90158     -0.058 
C3       C      0.66458      0.51171      0.90158     -0.058 
H1       H      0.999673     0.197495     0.0867006    0.108 
H1       H      0.499673     0.697495     0.0867006    0.108 
H1       H      0.499673     0.197495     0.586701     0.108 
H1       H      0.999673     0.697495     0.586701     0.108 
H1       H      0.0263737    0.191211     0.0933138    0.108 
H1       H      0.526374     0.691211     0.0933138    0.108 
H1       H      0.526374     0.191211     0.593314     0.108 
H1       H      0.0263737    0.691211     0.593314     0.108 
H1       H      0.651732     0.0654413    0.432217     0.108 
H1       H      0.151732     0.565441     0.432217     0.108 
H1       H      0.151732     0.0654413    0.932217     0.108 
H1       H      0.651732     0.565441     0.932217     0.108 
H1       H      0.635871     0.0806355    0.414125     0.108 
H1       H      0.135871     0.580636     0.414125     0.108 
H1       H      0.135871     0.0806355    0.914125     0.108 
H1       H      0.635871     0.580636     0.914125     0.108 
H1       H      0.1789       0.0976246    0.131832     0.108 
H1       H      0.6789       0.597625     0.131832     0.108 
H1       H      0.6789       0.0976246    0.631832     0.108 
H1       H      0.1789       0.597625     0.631832     0.108 
H1       H      0.539301     0.252846     0.476915     0.108 
H1       H      0.0393005    0.752846     0.476915     0.108 
H1       H      0.0393005    0.252846     0.976915     0.108 
H1       H      0.539301     0.752846     0.976915     0.108 
H1       H      0.662162     0.0238126    0.42256      0.108 
H1       H      0.162162     0.523813     0.42256      0.108 
H1       H      0.162162     0.0238126    0.92256      0.108 
H1       H      0.662162     0.523813     0.92256      0.108 
H1       H      0.652826     0.011724     0.39895      0.108 
H1       H      0.152826     0.511724     0.39895      0.108 
H1       H      0.152826     0.011724     0.89895      0.108 
H1       H      0.652826     0.511724     0.89895      0.108 
H1       H      0.707413     0.0157974    0.40874      0.108 
H1       H      0.207413     0.515797     0.40874      0.108 
H1       H      0.207413     0.0157974    0.90874      0.108 
H1       H      0.707413     0.515797     0.90874      0.108 
H1       H      0.698741     0.00159786   0.386449     0.108 
H1       H      0.198741     0.501598     0.386449     0.108 
H1       H      0.198741     0.00159786   0.886449     0.108 
H1       H      0.698741     0.501598     0.886449     0.108 
H1       H      0.708052     0.0622613    0.31518      0.108 
H1       H      0.208052     0.562261     0.31518      0.108 
H1       H      0.208052     0.0622613    0.81518      0.108 
H1       H      0.708052     0.562261     0.81518      0.108 
H1       H      0.730042     0.0396663    0.351816     0.108 
H1       H      0.230042     0.539666     0.351816     0.108 
H1       H      0.230042     0.0396663    0.851816     0.108 
H1       H      0.730042     0.539666     0.851816     0.108 
H1       H      0.625009     0.039098     0.369518     0.108 
H1       H      0.125009     0.539098     0.369518     0.108 
H1       H      0.125009     0.039098     0.869518     0.108 
H1       H      0.625009     0.539098     0.869518     0.108 
H1       H      0.615095     0.0655324    0.37456      0.108 
H1       H      0.115095     0.565532     0.37456      0.108 
H1       H      0.115095     0.0655324    0.87456      0.108 
H1       H      0.615095     0.565532     0.87456      0.108 
H1       H      0.653        0.0557292    0.335099     0.108 
H1       H      0.153        0.555729     0.335099     0.108 
H1       H      0.153        0.0557292    0.835099     0.108 
H1       H      0.653        0.555729     0.835099     0.108 
H1       H      0.642242     0.0818913    0.337247     0.108 
H1       H      0.142242     0.581891     0.337247     0.108 
H1       H      0.142242     0.0818913    0.837247     0.108 
H1       H      0.642242     0.581891     0.837247     0.108 
H1       H      0.581315     0.237544     0.492047     0.108 
H1       H      0.0813152    0.737544     0.492047     0.108 
H1       H      0.0813152    0.237544     0.992047     0.108 
H1       H      0.581315     0.737544     0.992047     0.108 
Cr2      Cr     0.48709      0.17799      0.34473      1.35  
Cr2      Cr     0.98709      0.67799      0.34473      1.35  
Cr2      Cr     0.98709      0.17799      0.84473      1.35  
Cr2      Cr     0.48709      0.67799      0.84473      1.35  
Cr1      Cr     0.29154      0.0424603    0.0728004    1.619 
Cr1      Cr     0.79154      0.54246      0.0728004    1.619 
Cr1      Cr     0.79154      0.0424603    0.5728       1.619 
Cr1      Cr     0.29154      0.54246      0.5728       1.619 
O3       O      0.0696396    0.15982      0.10869     -0.438 
O3       O      0.56964      0.65982      0.10869     -0.438 
O3       O      0.56964      0.15982      0.60869     -0.438 
O3       O      0.0696396    0.65982      0.60869     -0.438 
O2       O      0.27354      0.0558699    0.0738998   -0.574 
O2       O      0.77354      0.55587      0.0738998   -0.574 
O2       O      0.77354      0.0558699    0.5739      -0.574 
O2       O      0.27354      0.55587      0.5739      -0.574 
O2       O      0.1993       0.0726305    0.08886     -0.574 
O2       O      0.6993       0.572629     0.08886     -0.574 
O2       O      0.6993       0.0726305    0.58886     -0.574 
O2       O      0.1993       0.572629     0.58886     -0.574 
O3       O      0.67932      0.0241603    0.471219    -0.438 
O3       O      0.17932      0.52416      0.471219    -0.438 
O3       O      0.17932      0.0241603    0.971219    -0.438 
O3       O      0.67932      0.52416      0.971219    -0.438 
O2       O      0.70477      0.0219503    0.46763     -0.574 
O2       O      0.20477      0.52195      0.46763     -0.574 
O2       O      0.20477      0.0219503    0.96763     -0.574 
O2       O      0.70477      0.52195      0.96763     -0.574 
O2       O      0.51956      0.17561      0.327009    -0.574 
O2       O      0.0195603    0.67561      0.327009    -0.574 
O2       O      0.0195603    0.17561      0.827009    -0.574 
O2       O      0.51956      0.67561      0.827009    -0.574 
O3       O      0.50308      0.19003      0.33776     -0.438 
O3       O      0.00307981   0.69003      0.33776     -0.438 
O3       O      0.00307981   0.19003      0.83776     -0.438 
O3       O      0.50308      0.69003      0.83776     -0.438 
O3       O      0.60124      0.22279      0.33758     -0.438 
O3       O      0.10124      0.72279      0.33758     -0.438 
O3       O      0.10124      0.22279      0.83758     -0.438 
O3       O      0.60124      0.72279      0.83758     -0.438 
O2       O      0.61549      0.22747      0.35774     -0.574 
O2       O      0.11549      0.72747      0.35774     -0.574 
O2       O      0.11549      0.22747      0.85774     -0.574 
O2       O      0.61549      0.72747      0.85774     -0.574 
O2       O      0.62448      0.14811      0.35125     -0.574 
O2       O      0.12448      0.64811      0.35125     -0.574 
O2       O      0.12448      0.14811      0.85125     -0.574 
O2       O      0.62448      0.64811      0.85125     -0.574 
O3       O      0.63369      0.15693      0.37292     -0.438 
O3       O      0.13369      0.65693      0.37292     -0.438 
O3       O      0.13369      0.15693      0.87292     -0.438 
O3       O      0.63369      0.65693      0.87292     -0.438 
O2       O      0.57805      0.19089      0.44362     -0.574 
O2       O      0.0780497    0.69089      0.44362     -0.574 
O2       O      0.0780497    0.19089      0.94362     -0.574 
O2       O      0.57805      0.69089      0.94362     -0.574 
O3       O      0.620559     0.14622      0.39839     -0.438 
O3       O      0.120559     0.64622      0.39839     -0.438 
O3       O      0.120559     0.14622      0.89839     -0.438 
O3       O      0.620559     0.64622      0.89839     -0.438 
O2       O      0.54621      0.22624      0.435231    -0.574 
O2       O      0.0462096    0.72624      0.435231    -0.574 
O2       O      0.0462096    0.22624      0.935229    -0.574 
O2       O      0.54621      0.72624      0.935229    -0.574 
O2       O      0.569449     0.21912      0.43927     -0.574 
O2       O      0.0694505    0.71912      0.43927     -0.574 
O2       O      0.0694505    0.21912      0.93927     -0.574 
O2       O      0.569449     0.71912      0.93927     -0.574 
O2       O      0.57278      0.25664      0.36692     -0.574 
O2       O      0.0727802    0.75664      0.36692     -0.574 
O2       O      0.0727802    0.25664      0.86692     -0.574 
O2       O      0.57278      0.75664      0.86692     -0.574 
O2       O      0.59525      0.24662      0.37647     -0.574 
O2       O      0.0952503    0.74662      0.37647     -0.574 
O2       O      0.0952503    0.24662      0.87647     -0.574 
O2       O      0.59525      0.74662      0.87647     -0.574 
F1       F      0.47474      0.1975       0.3442      -0.547 
F1       F      0.97474      0.6975       0.3442      -0.547 
F1       F      0.97474      0.1975       0.8442      -0.547 
F1       F      0.47474      0.6975       0.8442      -0.547 
C3       C      0.0693403    0.14071      0.1295      -0.058 
C3       C      0.56934      0.64071      0.1295      -0.058 
C3       C      0.56934      0.14071      0.6295      -0.058 
C3       C      0.0693403    0.64071      0.6295      -0.058 
C3       C      0.24493      0.0620002    0.0816303   -0.058 
C3       C      0.74493      0.562        0.0816303   -0.058 
C3       C      0.74493      0.0620002    0.58163     -0.058 
C3       C      0.24493      0.562        0.58163     -0.058 
C3       C      0.22948      0.0652995    0.08506     -0.058 
C3       C      0.72948      0.565299     0.08506     -0.058 
C3       C      0.72948      0.0652995    0.58506     -0.058 
C3       C      0.22948      0.565299     0.58506     -0.058 
C3       C      0.20309      0.497479     0.48623     -0.058 
C3       C      0.70309      0.997479     0.48623     -0.058 
C3       C      0.70309      0.497479     0.98623     -0.058 
C3       C      0.20309      0.997479     0.98623     -0.058 
C1       C      0.69264      0.0203299    0.476        0.496 
C1       C      0.19264      0.52033      0.476        0.496 
C1       C      0.19264      0.0203299    0.976        0.496 
C1       C      0.69264      0.52033      0.976        0.496 
C2       C      0.69264      0.00940035   0.48755     -0.07  
C2       C      0.19264      0.5094       0.48755     -0.07  
C2       C      0.19264      0.00940035   0.98755     -0.07  
C2       C      0.69264      0.5094       0.98755     -0.07  
C3       C      0.67859      0.00632054   0.49506     -0.058 
C3       C      0.17859      0.506319     0.49506     -0.058 
C3       C      0.17859      0.00632054   0.99506     -0.058 
C3       C      0.67859      0.506319     0.99506     -0.058 
C3       C      0.54077      0.19769      0.32184     -0.058 
C3       C      0.0407701    0.69769      0.32184     -0.058 
C3       C      0.0407701    0.19769      0.82184     -0.058 
C3       C      0.54077      0.69769      0.82184     -0.058 
C1       C      0.51544      0.1887       0.33022      0.496 
C1       C      0.0154396    0.6887       0.33022      0.496 
C1       C      0.0154396    0.1887       0.83022      0.496 
C1       C      0.51544      0.6887       0.83022      0.496 
C2       C      0.52741      0.19982      0.33111     -0.07  
C2       C      0.02741      0.69982      0.33111     -0.07  
C2       C      0.02741      0.19982      0.83111     -0.07  
C2       C      0.52741      0.69982      0.83111     -0.07  
C3       C      0.52803      0.21067      0.3429      -0.058 
C3       C      0.02803      0.71067      0.3429      -0.058 
C3       C      0.02803      0.21067      0.8429      -0.058 
C3       C      0.52803      0.71067      0.8429      -0.058 
C3       C      0.60653      0.19184      0.342039    -0.058 
C3       C      0.10653      0.69184      0.342039    -0.058 
C3       C      0.10653      0.19184      0.842039    -0.058 
C3       C      0.60653      0.69184      0.842039    -0.058 
C1       C      0.61156      0.21908      0.34671      0.496 
C1       C      0.11156      0.71908      0.34671      0.496 
C1       C      0.11156      0.21908      0.84671      0.496 
C1       C      0.61156      0.71908      0.84671      0.496 
C2       C      0.61496      0.20404      0.34891     -0.07  
C2       C      0.11496      0.70404      0.34891     -0.07  
C2       C      0.11496      0.20404      0.84891     -0.07  
C2       C      0.61496      0.70404      0.84891     -0.07  
C3       C      0.61117      0.1769       0.34472     -0.058 
C3       C      0.11117      0.6769       0.34472     -0.058 
C3       C      0.11117      0.1769       0.84472     -0.058 
C3       C      0.61117      0.6769       0.84472     -0.058 
C1       C      0.62691      0.15929      0.3603       0.496 
C1       C      0.12691      0.65929      0.3603       0.496 
C1       C      0.12691      0.15929      0.8603       0.496 
C1       C      0.62691      0.65929      0.8603       0.496 
C2       C      0.6205       0.17411      0.357689    -0.07  
C2       C      0.1205       0.67411      0.357689    -0.07  
C2       C      0.1205       0.17411      0.857689    -0.07  
C2       C      0.6205       0.67411      0.857689    -0.07  
C3       C      0.62254      0.201639     0.36224     -0.058 
C3       C      0.12254      0.701639     0.36224     -0.058 
C3       C      0.12254      0.201639     0.86224     -0.058 
C3       C      0.62254      0.701639     0.86224     -0.058 
C3       C      0.62689      0.1865       0.36582     -0.058 
C3       C      0.12689      0.6865       0.36582     -0.058 
C3       C      0.12689      0.1865       0.865819    -0.058 
C3       C      0.62689      0.6865       0.865819    -0.058 
C3       C      0.59529      0.17322      0.42951     -0.058 
C3       C      0.0952897    0.67322      0.42951     -0.058 
C3       C      0.0952897    0.17322      0.92951     -0.058 
C3       C      0.59529      0.67322      0.92951     -0.058 
C3       C      0.60355      0.16515      0.41801     -0.058 
C3       C      0.10355      0.66515      0.41801     -0.058 
C3       C      0.10355      0.16515      0.91801     -0.058 
C3       C      0.60355      0.66515      0.91801     -0.058 
C3       C      0.55429      0.23645      0.40706     -0.058 
C3       C      0.05429      0.73645      0.40706     -0.058 
C3       C      0.05429      0.23645      0.90706     -0.058 
C3       C      0.55429      0.73645      0.90706     -0.058 
C1       C      0.55984      0.22536      0.4313       0.496 
C1       C      0.0598398    0.72536      0.4313       0.496 
C1       C      0.0598398    0.22536      0.9313       0.496 
C1       C      0.55984      0.72536      0.9313       0.496 
C2       C      0.56482      0.23193      0.41789     -0.07  
C2       C      0.0648201    0.73193      0.41789     -0.07  
C2       C      0.0648201    0.23193      0.91789     -0.07  
C2       C      0.56482      0.73193      0.91789     -0.07  
C3       C      0.55924      0.24383      0.39422     -0.058 
C3       C      0.05924      0.74383      0.39422     -0.058 
C3       C      0.05924      0.24383      0.89422     -0.058 
C3       C      0.55924      0.74383      0.89422     -0.058 
C1       C      0.58082      0.24905      0.37747      0.496 
C1       C      0.0808201    0.74905      0.37747      0.496 
C1       C      0.0808201    0.24905      0.87747      0.496 
C1       C      0.58082      0.74905      0.87747      0.496 
C2       C      0.57478      0.24511      0.39175     -0.07  
C2       C      0.0747797    0.74511      0.39175     -0.07  
C2       C      0.0747797    0.24511      0.89175     -0.07  
C2       C      0.57478      0.74511      0.89175     -0.07  
C3       C      0.58032      0.23154      0.41484     -0.058 
C3       C      0.0803205    0.73154      0.41484     -0.058 
C3       C      0.0803205    0.23154      0.91484     -0.058 
C3       C      0.58032      0.73154      0.91484     -0.058 
C3       C      0.58542      0.23829      0.40158     -0.058 
C3       C      0.0854201    0.73829      0.40158     -0.058 
C3       C      0.0854201    0.23829      0.90158     -0.058 
C3       C      0.58542      0.73829      0.90158     -0.058 
H1       H      0.250328     0.0525054    0.0867006    0.108 
H1       H      0.750327     0.552505     0.0867006    0.108 
H1       H      0.750327     0.0525054    0.586701     0.108 
H1       H      0.250328     0.552505     0.586701     0.108 
H1       H      0.223627     0.0587888    0.0933138    0.108 
H1       H      0.723627     0.558789     0.0933138    0.108 
H1       H      0.723627     0.0587888    0.593314     0.108 
H1       H      0.223627     0.558789     0.593314     0.108 
H1       H      0.598268     0.184559     0.432217     0.108 
H1       H      0.0982682    0.684559     0.432217     0.108 
H1       H      0.0982682    0.184559     0.932217     0.108 
H1       H      0.598268     0.684559     0.932217     0.108 
H1       H      0.614129     0.169365     0.414125     0.108 
H1       H      0.114129     0.669365     0.414125     0.108 
H1       H      0.114129     0.169365     0.914125     0.108 
H1       H      0.614129     0.669365     0.914125     0.108 
H1       H      0.071099     0.152376     0.131832     0.108 
H1       H      0.571099     0.652376     0.131832     0.108 
H1       H      0.571099     0.152376     0.631832     0.108 
H1       H      0.071099     0.652376     0.631832     0.108 
H1       H      0.210699     0.497154     0.476915     0.108 
H1       H      0.710699     0.997154     0.476915     0.108 
H1       H      0.710699     0.497154     0.976915     0.108 
H1       H      0.210699     0.997154     0.976915     0.108 
H1       H      0.587837     0.226188     0.42256      0.108 
H1       H      0.0878372    0.726188     0.42256      0.108 
H1       H      0.0878372    0.226188     0.92256      0.108 
H1       H      0.587837     0.726188     0.92256      0.108 
H1       H      0.597174     0.238275     0.39895      0.108 
H1       H      0.0971745    0.738275     0.39895      0.108 
H1       H      0.0971745    0.238275     0.89895      0.108 
H1       H      0.597174     0.738275     0.89895      0.108 
H1       H      0.542586     0.234202     0.40874      0.108 
H1       H      0.0425863    0.734202     0.40874      0.108 
H1       H      0.0425863    0.234202     0.90874      0.108 
H1       H      0.542586     0.734202     0.90874      0.108 
H1       H      0.551259     0.248402     0.386449     0.108 
H1       H      0.0512586    0.748402     0.386449     0.108 
H1       H      0.0512586    0.248402     0.886449     0.108 
H1       H      0.551259     0.748402     0.886449     0.108 
H1       H      0.541947     0.187739     0.31518      0.108 
H1       H      0.0419471    0.687738     0.31518      0.108 
H1       H      0.0419471    0.187739     0.81518      0.108 
H1       H      0.541947     0.687738     0.81518      0.108 
H1       H      0.519957     0.210333     0.351816     0.108 
H1       H      0.0199575    0.710333     0.351816     0.108 
H1       H      0.0199575    0.210333     0.851816     0.108 
H1       H      0.519957     0.710333     0.851816     0.108 
H1       H      0.624991     0.210901     0.369518     0.108 
H1       H      0.124991     0.710901     0.369518     0.108 
H1       H      0.124991     0.210901     0.869518     0.108 
H1       H      0.624991     0.710901     0.869518     0.108 
H1       H      0.634905     0.184467     0.37456      0.108 
H1       H      0.134905     0.684467     0.37456      0.108 
H1       H      0.134905     0.184467     0.87456      0.108 
H1       H      0.634905     0.684467     0.87456      0.108 
H1       H      0.597        0.194271     0.335099     0.108 
H1       H      0.0970001    0.69427      0.335099     0.108 
H1       H      0.0970001    0.194271     0.835099     0.108 
H1       H      0.597        0.69427      0.835099     0.108 
H1       H      0.607759     0.168108     0.337247     0.108 
H1       H      0.107759     0.668108     0.337247     0.108 
H1       H      0.107759     0.168108     0.837247     0.108 
H1       H      0.607759     0.668108     0.837247     0.108 
H1       H      0.668684     0.0124565    0.492047     0.108 
H1       H      0.168684     0.512457     0.492047     0.108 
H1       H      0.168684     0.0124565    0.992047     0.108 
H1       H      0.668684     0.512457     0.992047     0.108 
Cr2      Cr     0.98709      0.0720105    0.40527      1.35  
Cr2      Cr     0.48709      0.57201      0.40527      1.35  
Cr2      Cr     0.48709      0.0720105    0.90527      1.35  
Cr2      Cr     0.98709      0.57201      0.90527      1.35  
Cr2      Cr     0.29154      0.20754      0.1772       1.35  
Cr2      Cr     0.79154      0.70754      0.1772       1.35  
Cr2      Cr     0.79154      0.20754      0.6772       1.35  
Cr2      Cr     0.29154      0.70754      0.6772       1.35  
O2       O      0.0696396    0.0901799    0.14131     -0.574 
O2       O      0.56964      0.59018      0.14131     -0.574 
O2       O      0.56964      0.0901799    0.64131     -0.574 
O2       O      0.0696396    0.59018      0.64131     -0.574 
O3       O      0.27354      0.19413      0.1761      -0.438 
O3       O      0.77354      0.69413      0.1761      -0.438 
O3       O      0.77354      0.19413      0.6761      -0.438 
O3       O      0.27354      0.69413      0.6761      -0.438 
O2       O      0.1993       0.17737      0.161139    -0.574 
O2       O      0.6993       0.67737      0.161139    -0.574 
O2       O      0.6993       0.17737      0.661139    -0.574 
O2       O      0.1993       0.67737      0.661139    -0.574 
O2       O      0.17932      0.22584      0.27878     -0.574 
O2       O      0.67932      0.72584      0.27878     -0.574 
O2       O      0.67932      0.22584      0.77878     -0.574 
O2       O      0.17932      0.72584      0.77878     -0.574 
O3       O      0.20477      0.22805      0.28237     -0.438 
O3       O      0.70477      0.72805      0.28237     -0.438 
O3       O      0.70477      0.22805      0.78237     -0.438 
O3       O      0.20477      0.72805      0.78237     -0.438 
O2       O      0.0195603    0.0743904    0.42299     -0.574 
O2       O      0.51956      0.57439      0.42299     -0.574 
O2       O      0.51956      0.0743904    0.92299     -0.574 
O2       O      0.0195603    0.57439      0.92299     -0.574 
O3       O      0.00307981   0.0599703    0.41224     -0.438 
O3       O      0.50308      0.55997      0.41224     -0.438 
O3       O      0.50308      0.0599703    0.912239    -0.438 
O3       O      0.00307981   0.55997      0.912239    -0.438 
O3       O      0.10124      0.0272097    0.412419    -0.438 
O3       O      0.60124      0.52721      0.412419    -0.438 
O3       O      0.60124      0.0272097    0.912419    -0.438 
O3       O      0.10124      0.52721      0.912419    -0.438 
O2       O      0.11549      0.0225298    0.392259    -0.574 
O2       O      0.61549      0.52253      0.392259    -0.574 
O2       O      0.61549      0.0225298    0.892259    -0.574 
O2       O      0.11549      0.52253      0.892259    -0.574 
O2       O      0.12448      0.10189      0.39875     -0.574 
O2       O      0.62448      0.60189      0.39875     -0.574 
O2       O      0.62448      0.10189      0.89875     -0.574 
O2       O      0.12448      0.60189      0.89875     -0.574 
O2       O      0.13369      0.0930696    0.37708     -0.574 
O2       O      0.63369      0.59307      0.37708     -0.574 
O2       O      0.63369      0.0930696    0.87708     -0.574 
O2       O      0.13369      0.59307      0.87708     -0.574 
O3       O      0.0780497    0.0591095    0.30638     -0.438 
O3       O      0.57805      0.559109     0.30638     -0.438 
O3       O      0.57805      0.0591095    0.80638     -0.438 
O3       O      0.0780497    0.559109     0.80638     -0.438 
O2       O      0.120559     0.10378      0.35161     -0.574 
O2       O      0.620559     0.60378      0.35161     -0.574 
O2       O      0.620559     0.10378      0.85161     -0.574 
O2       O      0.120559     0.60378      0.85161     -0.574 
O2       O      0.0462096    0.0237597    0.31477     -0.574 
O2       O      0.54621      0.52376      0.31477     -0.574 
O2       O      0.54621      0.0237597    0.81477     -0.574 
O2       O      0.0462096    0.52376      0.81477     -0.574 
O3       O      0.0694505    0.0308803    0.31073     -0.438 
O3       O      0.569449     0.53088      0.31073     -0.438 
O3       O      0.569449     0.0308803    0.81073     -0.438 
O3       O      0.0694505    0.53088      0.81073     -0.438 
O2       O      0.57278      0.49336      0.38308     -0.574 
O2       O      0.0727802    0.99336      0.38308     -0.574 
O2       O      0.0727802    0.49336      0.88308     -0.574 
O2       O      0.57278      0.99336      0.88308     -0.574 
O2       O      0.0952503    0.00338026   0.37353     -0.574 
O2       O      0.59525      0.50338      0.37353     -0.574 
O2       O      0.59525      0.00338026   0.87353     -0.574 
O2       O      0.0952503    0.50338      0.87353     -0.574 
F1       F      0.28913      0.211271     0.15585     -0.547 
F1       F      0.78913      0.711269     0.15585     -0.547 
F1       F      0.78913      0.211271     0.65585     -0.547 
F1       F      0.28913      0.711269     0.65585     -0.547 
F1       F      0.97474      0.0524997    0.4058      -0.547 
F1       F      0.47474      0.5525       0.4058      -0.547 
F1       F      0.47474      0.0524997    0.9058      -0.547 
F1       F      0.97474      0.5525       0.9058      -0.547 
C3       C      0.0693403    0.10929      0.1205      -0.058 
C3       C      0.56934      0.60929      0.1205      -0.058 
C3       C      0.56934      0.10929      0.6205      -0.058 
C3       C      0.0693403    0.60929      0.6205      -0.058 
C3       C      0.24493      0.188        0.16837     -0.058 
C3       C      0.74493      0.688        0.16837     -0.058 
C3       C      0.74493      0.188        0.66837     -0.058 
C3       C      0.24493      0.688        0.66837     -0.058 
C3       C      0.22948      0.1847       0.164941    -0.058 
C3       C      0.72948      0.6847       0.164941    -0.058 
C3       C      0.72948      0.1847       0.664939    -0.058 
C3       C      0.22948      0.6847       0.664939    -0.058 
C3       C      0.20309      0.25252      0.26377     -0.058 
C3       C      0.70309      0.75252      0.26377     -0.058 
C3       C      0.70309      0.25252      0.76377     -0.058 
C3       C      0.20309      0.75252      0.76377     -0.058 
C1       C      0.19264      0.22967      0.274        0.496 
C1       C      0.69264      0.72967      0.274        0.496 
C1       C      0.69264      0.22967      0.774        0.496 
C1       C      0.19264      0.72967      0.774        0.496 
C2       C      0.19264      0.2406       0.26245     -0.07  
C2       C      0.69264      0.7406       0.26245     -0.07  
C2       C      0.69264      0.2406       0.76245     -0.07  
C2       C      0.19264      0.7406       0.76245     -0.07  
C3       C      0.17859      0.24368      0.25494     -0.058 
C3       C      0.67859      0.74368      0.25494     -0.058 
C3       C      0.67859      0.24368      0.75494     -0.058 
C3       C      0.17859      0.74368      0.75494     -0.058 
C3       C      0.0407701    0.0523096    0.428159    -0.058 
C3       C      0.54077      0.55231      0.428159    -0.058 
C3       C      0.54077      0.0523096    0.928159    -0.058 
C3       C      0.0407701    0.55231      0.928159    -0.058 
C1       C      0.0154396    0.0613003    0.41978      0.496 
C1       C      0.51544      0.5613       0.41978      0.496 
C1       C      0.51544      0.0613003    0.91978      0.496 
C1       C      0.0154396    0.5613       0.91978      0.496 
C2       C      0.02741      0.0501795    0.41889     -0.07  
C2       C      0.52741      0.550179     0.41889     -0.07  
C2       C      0.52741      0.0501795    0.91889     -0.07  
C2       C      0.02741      0.550179     0.91889     -0.07  
C3       C      0.02803      0.0393298    0.4071      -0.058 
C3       C      0.52803      0.53933      0.4071      -0.058 
C3       C      0.52803      0.0393298    0.9071      -0.058 
C3       C      0.02803      0.53933      0.9071      -0.058 
C3       C      0.10653      0.0581598    0.40796     -0.058 
C3       C      0.60653      0.55816      0.40796     -0.058 
C3       C      0.60653      0.0581598    0.90796     -0.058 
C3       C      0.10653      0.55816      0.90796     -0.058 
C1       C      0.11156      0.0309197    0.40329      0.496 
C1       C      0.61156      0.53092      0.40329      0.496 
C1       C      0.61156      0.0309197    0.90329      0.496 
C1       C      0.11156      0.53092      0.90329      0.496 
C2       C      0.11496      0.0459598    0.40109     -0.07  
C2       C      0.61496      0.54596      0.40109     -0.07  
C2       C      0.61496      0.0459598    0.90109     -0.07  
C2       C      0.11496      0.54596      0.90109     -0.07  
C3       C      0.11117      0.0730997    0.40528     -0.058 
C3       C      0.61117      0.5731       0.40528     -0.058 
C3       C      0.61117      0.0730997    0.90528     -0.058 
C3       C      0.11117      0.5731       0.90528     -0.058 
C1       C      0.12691      0.0907099    0.389699     0.496 
C1       C      0.62691      0.59071      0.389699     0.496 
C1       C      0.62691      0.0907099    0.889699     0.496 
C1       C      0.12691      0.59071      0.889699     0.496 
C2       C      0.1205       0.0758904    0.39231     -0.07  
C2       C      0.6205       0.57589      0.39231     -0.07  
C2       C      0.6205       0.0758904    0.89231     -0.07  
C2       C      0.1205       0.57589      0.89231     -0.07  
C3       C      0.12254      0.0483599    0.38776     -0.058 
C3       C      0.62254      0.54836      0.38776     -0.058 
C3       C      0.62254      0.0483599    0.88776     -0.058 
C3       C      0.12254      0.54836      0.88776     -0.058 
C3       C      0.12689      0.0635002    0.38418     -0.058 
C3       C      0.62689      0.5635       0.38418     -0.058 
C3       C      0.62689      0.0635002    0.88418     -0.058 
C3       C      0.12689      0.5635       0.88418     -0.058 
C3       C      0.0952897    0.0767804    0.32049     -0.058 
C3       C      0.59529      0.57678      0.32049     -0.058 
C3       C      0.59529      0.0767804    0.82049     -0.058 
C3       C      0.0952897    0.57678      0.82049     -0.058 
C3       C      0.10355      0.0848496    0.33199     -0.058 
C3       C      0.60355      0.58485      0.33199     -0.058 
C3       C      0.60355      0.0848496    0.83199     -0.058 
C3       C      0.10355      0.58485      0.83199     -0.058 
C3       C      0.05429      0.0135503    0.34294     -0.058 
C3       C      0.55429      0.51355      0.34294     -0.058 
C3       C      0.55429      0.0135503    0.84294     -0.058 
C3       C      0.05429      0.51355      0.84294     -0.058 
C1       C      0.0598398    0.0246396    0.318699     0.496 
C1       C      0.55984      0.52464      0.318699     0.496 
C1       C      0.55984      0.0246396    0.818699     0.496 
C1       C      0.0598398    0.52464      0.818699     0.496 
C2       C      0.0648201    0.0180704    0.33211     -0.07  
C2       C      0.56482      0.51807      0.33211     -0.07  
C2       C      0.56482      0.0180704    0.83211     -0.07  
C2       C      0.0648201    0.51807      0.83211     -0.07  
C3       C      0.05924      0.00616976   0.35578     -0.058 
C3       C      0.55924      0.50617      0.35578     -0.058 
C3       C      0.55924      0.00616976   0.85578     -0.058 
C3       C      0.05924      0.50617      0.85578     -0.058 
C1       C      0.0808201    0.000949712  0.37253      0.496 
C1       C      0.58082      0.50095      0.37253      0.496 
C1       C      0.58082      0.000949712  0.87253      0.496 
C1       C      0.0808201    0.50095      0.87253      0.496 
C2       C      0.0747797    0.00489034   0.35825     -0.07  
C2       C      0.57478      0.50489      0.35825     -0.07  
C2       C      0.57478      0.00489034   0.85825     -0.07  
C2       C      0.0747797    0.50489      0.85825     -0.07  
C3       C      0.0803205    0.0184598    0.33516     -0.058 
C3       C      0.58032      0.51846      0.33516     -0.058 
C3       C      0.58032      0.0184598    0.83516     -0.058 
C3       C      0.0803205    0.51846      0.83516     -0.058 
C3       C      0.0854201    0.0117105    0.34842     -0.058 
C3       C      0.58542      0.51171      0.34842     -0.058 
C3       C      0.58542      0.0117105    0.84842     -0.058 
C3       C      0.0854201    0.51171      0.84842     -0.058 
H1       H      0.250328     0.197495     0.1633       0.108 
H1       H      0.750327     0.697495     0.1633       0.108 
H1       H      0.750327     0.197495     0.6633       0.108 
H1       H      0.250328     0.697495     0.6633       0.108 
H1       H      0.223627     0.191211     0.156687     0.108 
H1       H      0.723627     0.691211     0.156687     0.108 
H1       H      0.723627     0.191211     0.656687     0.108 
H1       H      0.223627     0.691211     0.656687     0.108 
H1       H      0.0982682    0.0654413    0.317782     0.108 
H1       H      0.598268     0.565441     0.317782     0.108 
H1       H      0.598268     0.0654413    0.817782     0.108 
H1       H      0.0982682    0.565441     0.817782     0.108 
H1       H      0.114129     0.0806355    0.335875     0.108 
H1       H      0.614129     0.580636     0.335875     0.108 
H1       H      0.614129     0.0806355    0.835875     0.108 
H1       H      0.114129     0.580636     0.835875     0.108 
H1       H      0.071099     0.0976246    0.118168     0.108 
H1       H      0.571099     0.597625     0.118168     0.108 
H1       H      0.571099     0.0976246    0.618168     0.108 
H1       H      0.071099     0.597625     0.618168     0.108 
H1       H      0.210699     0.252846     0.273085     0.108 
H1       H      0.710699     0.752846     0.273085     0.108 
H1       H      0.710699     0.252846     0.773084     0.108 
H1       H      0.210699     0.752846     0.773084     0.108 
H1       H      0.0878372    0.0238126    0.327439     0.108 
H1       H      0.587837     0.523813     0.327439     0.108 
H1       H      0.587837     0.0238126    0.827439     0.108 
H1       H      0.0878372    0.523813     0.827439     0.108 
H1       H      0.0971745    0.011724     0.35105      0.108 
H1       H      0.597174     0.511724     0.35105      0.108 
H1       H      0.597174     0.011724     0.85105      0.108 
H1       H      0.0971745    0.511724     0.85105      0.108 
H1       H      0.0425863    0.0157974    0.34126      0.108 
H1       H      0.542586     0.515797     0.34126      0.108 
H1       H      0.542586     0.0157974    0.84126      0.108 
H1       H      0.0425863    0.515797     0.84126      0.108 
H1       H      0.0512586    0.00159786   0.363551     0.108 
H1       H      0.551259     0.501598     0.363551     0.108 
H1       H      0.551259     0.00159786   0.863551     0.108 
H1       H      0.0512586    0.501598     0.863551     0.108 
H1       H      0.0419471    0.0622613    0.43482      0.108 
H1       H      0.541947     0.562261     0.43482      0.108 
H1       H      0.541947     0.0622613    0.93482      0.108 
H1       H      0.0419471    0.562261     0.93482      0.108 
H1       H      0.0199575    0.0396663    0.398184     0.108 
H1       H      0.519957     0.539666     0.398184     0.108 
H1       H      0.519957     0.0396663    0.898184     0.108 
H1       H      0.0199575    0.539666     0.898184     0.108 
H1       H      0.124991     0.039098     0.380481     0.108 
H1       H      0.624991     0.539098     0.380481     0.108 
H1       H      0.624991     0.039098     0.880481     0.108 
H1       H      0.124991     0.539098     0.880481     0.108 
H1       H      0.134905     0.0655324    0.375439     0.108 
H1       H      0.634905     0.565532     0.375439     0.108 
H1       H      0.634905     0.0655324    0.875439     0.108 
H1       H      0.134905     0.565532     0.875439     0.108 
H1       H      0.0970001    0.0557292    0.414902     0.108 
H1       H      0.597        0.555729     0.414902     0.108 
H1       H      0.597        0.0557292    0.914902     0.108 
H1       H      0.0970001    0.555729     0.914902     0.108 
H1       H      0.107759     0.0818913    0.412752     0.108 
H1       H      0.607759     0.581891     0.412752     0.108 
H1       H      0.607759     0.0818913    0.912752     0.108 
H1       H      0.107759     0.581891     0.912752     0.108 
H1       H      0.168684     0.237544     0.257953     0.108 
H1       H      0.668684     0.737544     0.257953     0.108 
H1       H      0.668684     0.237544     0.757953     0.108 
H1       H      0.168684     0.737544     0.757953     0.108 
Cr1      Cr     0.90527      0.0720105    0.48709      1.619 
Cr1      Cr     0.40527      0.57201      0.48709      1.619 
Cr1      Cr     0.40527      0.0720105    0.98709      1.619 
Cr1      Cr     0.90527      0.57201      0.98709      1.619 
Cr1      Cr     0.1772       0.20754      0.29154      1.619 
Cr1      Cr     0.6772       0.70754      0.29154      1.619 
Cr1      Cr     0.6772       0.20754      0.79154      1.619 
Cr1      Cr     0.1772       0.70754      0.79154      1.619 
O2       O      0.14131      0.0901799    0.0696396   -0.574 
O2       O      0.64131      0.59018      0.0696396   -0.574 
O2       O      0.64131      0.0901799    0.56964     -0.574 
O2       O      0.14131      0.59018      0.56964     -0.574 
O2       O      0.1761       0.19413      0.27354     -0.574 
O2       O      0.6761       0.69413      0.27354     -0.574 
O2       O      0.6761       0.19413      0.77354     -0.574 
O2       O      0.1761       0.69413      0.77354     -0.574 
O2       O      0.161139     0.17737      0.1993      -0.574 
O2       O      0.661139     0.67737      0.1993      -0.574 
O2       O      0.661139     0.17737      0.6993      -0.574 
O2       O      0.161139     0.67737      0.6993      -0.574 
O3       O      0.27878      0.22584      0.17932     -0.438 
O3       O      0.77878      0.72584      0.17932     -0.438 
O3       O      0.77878      0.22584      0.67932     -0.438 
O3       O      0.27878      0.72584      0.67932     -0.438 
O2       O      0.28237      0.22805      0.20477     -0.574 
O2       O      0.78237      0.72805      0.20477     -0.574 
O2       O      0.78237      0.22805      0.70477     -0.574 
O2       O      0.28237      0.72805      0.70477     -0.574 
O3       O      0.42299      0.0743904    0.0195603   -0.438 
O3       O      0.92299      0.57439      0.0195603   -0.438 
O3       O      0.92299      0.0743904    0.51956     -0.438 
O3       O      0.42299      0.57439      0.51956     -0.438 
O2       O      0.41224      0.0599703    0.00307981  -0.574 
O2       O      0.912239     0.55997      0.00307981  -0.574 
O2       O      0.912239     0.0599703    0.50308     -0.574 
O2       O      0.41224      0.55997      0.50308     -0.574 
O2       O      0.412419     0.0272097    0.10124     -0.574 
O2       O      0.912419     0.52721      0.10124     -0.574 
O2       O      0.912419     0.0272097    0.60124     -0.574 
O2       O      0.412419     0.52721      0.60124     -0.574 
O3       O      0.392259     0.0225298    0.11549     -0.438 
O3       O      0.892259     0.52253      0.11549     -0.438 
O3       O      0.892259     0.0225298    0.61549     -0.438 
O3       O      0.392259     0.52253      0.61549     -0.438 
O3       O      0.39875      0.10189      0.12448     -0.438 
O3       O      0.89875      0.60189      0.12448     -0.438 
O3       O      0.89875      0.10189      0.62448     -0.438 
O3       O      0.39875      0.60189      0.62448     -0.438 
O2       O      0.37708      0.0930696    0.13369     -0.574 
O2       O      0.87708      0.59307      0.13369     -0.574 
O2       O      0.87708      0.0930696    0.63369     -0.574 
O2       O      0.37708      0.59307      0.63369     -0.574 
O2       O      0.30638      0.0591095    0.0780497   -0.574 
O2       O      0.80638      0.559109     0.0780497   -0.574 
O2       O      0.80638      0.0591095    0.57805     -0.574 
O2       O      0.30638      0.559109     0.57805     -0.574 
O2       O      0.35161      0.10378      0.120559    -0.574 
O2       O      0.85161      0.60378      0.120559    -0.574 
O2       O      0.85161      0.10378      0.620559    -0.574 
O2       O      0.35161      0.60378      0.620559    -0.574 
O2       O      0.31477      0.0237597    0.0462096   -0.574 
O2       O      0.81477      0.52376      0.0462096   -0.574 
O2       O      0.81477      0.0237597    0.54621     -0.574 
O2       O      0.31477      0.52376      0.54621     -0.574 
O2       O      0.31073      0.0308803    0.0694505   -0.574 
O2       O      0.81073      0.53088      0.0694505   -0.574 
O2       O      0.81073      0.0308803    0.569449    -0.574 
O2       O      0.31073      0.53088      0.569449    -0.574 
O2       O      0.88308      0.49336      0.0727802   -0.574 
O2       O      0.38308      0.99336      0.0727802   -0.574 
O2       O      0.38308      0.49336      0.57278     -0.574 
O2       O      0.88308      0.99336      0.57278     -0.574 
O3       O      0.37353      0.00338026   0.0952503   -0.438 
O3       O      0.87353      0.50338      0.0952503   -0.438 
O3       O      0.87353      0.00338026   0.59525     -0.438 
O3       O      0.37353      0.50338      0.59525     -0.438 
C3       C      0.1205       0.10929      0.0693403   -0.058 
C3       C      0.6205       0.60929      0.0693403   -0.058 
C3       C      0.6205       0.10929      0.56934     -0.058 
C3       C      0.1205       0.60929      0.56934     -0.058 
C3       C      0.16837      0.188        0.24493     -0.058 
C3       C      0.66837      0.688        0.24493     -0.058 
C3       C      0.66837      0.188        0.74493     -0.058 
C3       C      0.16837      0.688        0.74493     -0.058 
C3       C      0.164941     0.1847       0.22948     -0.058 
C3       C      0.664939     0.6847       0.22948     -0.058 
C3       C      0.664939     0.1847       0.72948     -0.058 
C3       C      0.164941     0.6847       0.72948     -0.058 
C3       C      0.26377      0.25252      0.20309     -0.058 
C3       C      0.76377      0.75252      0.20309     -0.058 
C3       C      0.76377      0.25252      0.70309     -0.058 
C3       C      0.26377      0.75252      0.70309     -0.058 
C1       C      0.274        0.22967      0.19264      0.496 
C1       C      0.774        0.72967      0.19264      0.496 
C1       C      0.774        0.22967      0.69264      0.496 
C1       C      0.274        0.72967      0.69264      0.496 
C2       C      0.26245      0.2406       0.19264     -0.07  
C2       C      0.76245      0.7406       0.19264     -0.07  
C2       C      0.76245      0.2406       0.69264     -0.07  
C2       C      0.26245      0.7406       0.69264     -0.07  
C3       C      0.25494      0.24368      0.17859     -0.058 
C3       C      0.75494      0.74368      0.17859     -0.058 
C3       C      0.75494      0.24368      0.67859     -0.058 
C3       C      0.25494      0.74368      0.67859     -0.058 
C3       C      0.428159     0.0523096    0.0407701   -0.058 
C3       C      0.928159     0.55231      0.0407701   -0.058 
C3       C      0.928159     0.0523096    0.54077     -0.058 
C3       C      0.428159     0.55231      0.54077     -0.058 
C1       C      0.41978      0.0613003    0.0154396    0.496 
C1       C      0.91978      0.5613       0.0154396    0.496 
C1       C      0.91978      0.0613003    0.51544      0.496 
C1       C      0.41978      0.5613       0.51544      0.496 
C2       C      0.41889      0.0501795    0.02741     -0.07  
C2       C      0.91889      0.550179     0.02741     -0.07  
C2       C      0.91889      0.0501795    0.52741     -0.07  
C2       C      0.41889      0.550179     0.52741     -0.07  
C3       C      0.4071       0.0393298    0.02803     -0.058 
C3       C      0.9071       0.53933      0.02803     -0.058 
C3       C      0.9071       0.0393298    0.52803     -0.058 
C3       C      0.4071       0.53933      0.52803     -0.058 
C3       C      0.40796      0.0581598    0.10653     -0.058 
C3       C      0.90796      0.55816      0.10653     -0.058 
C3       C      0.90796      0.0581598    0.60653     -0.058 
C3       C      0.40796      0.55816      0.60653     -0.058 
C1       C      0.40329      0.0309197    0.11156      0.496 
C1       C      0.90329      0.53092      0.11156      0.496 
C1       C      0.90329      0.0309197    0.61156      0.496 
C1       C      0.40329      0.53092      0.61156      0.496 
C2       C      0.40109      0.0459598    0.11496     -0.07  
C2       C      0.90109      0.54596      0.11496     -0.07  
C2       C      0.90109      0.0459598    0.61496     -0.07  
C2       C      0.40109      0.54596      0.61496     -0.07  
C3       C      0.40528      0.0730997    0.11117     -0.058 
C3       C      0.90528      0.5731       0.11117     -0.058 
C3       C      0.90528      0.0730997    0.61117     -0.058 
C3       C      0.40528      0.5731       0.61117     -0.058 
C1       C      0.389699     0.0907099    0.12691      0.496 
C1       C      0.889699     0.59071      0.12691      0.496 
C1       C      0.889699     0.0907099    0.62691      0.496 
C1       C      0.389699     0.59071      0.62691      0.496 
C2       C      0.39231      0.0758904    0.1205      -0.07  
C2       C      0.89231      0.57589      0.1205      -0.07  
C2       C      0.89231      0.0758904    0.6205      -0.07  
C2       C      0.39231      0.57589      0.6205      -0.07  
C3       C      0.38776      0.0483599    0.12254     -0.058 
C3       C      0.88776      0.54836      0.12254     -0.058 
C3       C      0.88776      0.0483599    0.62254     -0.058 
C3       C      0.38776      0.54836      0.62254     -0.058 
C3       C      0.38418      0.0635002    0.12689     -0.058 
C3       C      0.88418      0.5635       0.12689     -0.058 
C3       C      0.88418      0.0635002    0.62689     -0.058 
C3       C      0.38418      0.5635       0.62689     -0.058 
C3       C      0.32049      0.0767804    0.0952897   -0.058 
C3       C      0.82049      0.57678      0.0952897   -0.058 
C3       C      0.82049      0.0767804    0.59529     -0.058 
C3       C      0.32049      0.57678      0.59529     -0.058 
C3       C      0.33199      0.0848496    0.10355     -0.058 
C3       C      0.83199      0.58485      0.10355     -0.058 
C3       C      0.83199      0.0848496    0.60355     -0.058 
C3       C      0.33199      0.58485      0.60355     -0.058 
C3       C      0.34294      0.0135503    0.05429     -0.058 
C3       C      0.84294      0.51355      0.05429     -0.058 
C3       C      0.84294      0.0135503    0.55429     -0.058 
C3       C      0.34294      0.51355      0.55429     -0.058 
C1       C      0.318699     0.0246396    0.0598398    0.496 
C1       C      0.818699     0.52464      0.0598398    0.496 
C1       C      0.818699     0.0246396    0.55984      0.496 
C1       C      0.318699     0.52464      0.55984      0.496 
C2       C      0.33211      0.0180704    0.0648201   -0.07  
C2       C      0.83211      0.51807      0.0648201   -0.07  
C2       C      0.83211      0.0180704    0.56482     -0.07  
C2       C      0.33211      0.51807      0.56482     -0.07  
C3       C      0.35578      0.00616976   0.05924     -0.058 
C3       C      0.85578      0.50617      0.05924     -0.058 
C3       C      0.85578      0.00616976   0.55924     -0.058 
C3       C      0.35578      0.50617      0.55924     -0.058 
C1       C      0.37253      0.000949712  0.0808201    0.496 
C1       C      0.87253      0.50095      0.0808201    0.496 
C1       C      0.87253      0.000949712  0.58082      0.496 
C1       C      0.37253      0.50095      0.58082      0.496 
C2       C      0.35825      0.00489034   0.0747797   -0.07  
C2       C      0.85825      0.50489      0.0747797   -0.07  
C2       C      0.85825      0.00489034   0.57478     -0.07  
C2       C      0.35825      0.50489      0.57478     -0.07  
C3       C      0.33516      0.0184598    0.0803205   -0.058 
C3       C      0.83516      0.51846      0.0803205   -0.058 
C3       C      0.83516      0.0184598    0.58032     -0.058 
C3       C      0.33516      0.51846      0.58032     -0.058 
C3       C      0.34842      0.0117105    0.0854201   -0.058 
C3       C      0.84842      0.51171      0.0854201   -0.058 
C3       C      0.84842      0.0117105    0.58542     -0.058 
C3       C      0.34842      0.51171      0.58542     -0.058 
H1       H      0.1633       0.197495     0.250328     0.108 
H1       H      0.6633       0.697495     0.250328     0.108 
H1       H      0.6633       0.197495     0.750327     0.108 
H1       H      0.1633       0.697495     0.750327     0.108 
H1       H      0.156687     0.191211     0.223627     0.108 
H1       H      0.656687     0.691211     0.223627     0.108 
H1       H      0.656687     0.191211     0.723627     0.108 
H1       H      0.156687     0.691211     0.723627     0.108 
H1       H      0.317782     0.0654413    0.0982682    0.108 
H1       H      0.817782     0.565441     0.0982682    0.108 
H1       H      0.817782     0.0654413    0.598268     0.108 
H1       H      0.317782     0.565441     0.598268     0.108 
H1       H      0.335875     0.0806355    0.114129     0.108 
H1       H      0.835875     0.580636     0.114129     0.108 
H1       H      0.835875     0.0806355    0.614129     0.108 
H1       H      0.335875     0.580636     0.614129     0.108 
H1       H      0.118168     0.0976246    0.071099     0.108 
H1       H      0.618168     0.597625     0.071099     0.108 
H1       H      0.618168     0.0976246    0.571099     0.108 
H1       H      0.118168     0.597625     0.571099     0.108 
H1       H      0.273085     0.252846     0.210699     0.108 
H1       H      0.773084     0.752846     0.210699     0.108 
H1       H      0.773084     0.252846     0.710699     0.108 
H1       H      0.273085     0.752846     0.710699     0.108 
H1       H      0.327439     0.0238126    0.0878372    0.108 
H1       H      0.827439     0.523813     0.0878372    0.108 
H1       H      0.827439     0.0238126    0.587837     0.108 
H1       H      0.327439     0.523813     0.587837     0.108 
H1       H      0.35105      0.011724     0.0971745    0.108 
H1       H      0.85105      0.511724     0.0971745    0.108 
H1       H      0.85105      0.011724     0.597174     0.108 
H1       H      0.35105      0.511724     0.597174     0.108 
H1       H      0.34126      0.0157974    0.0425863    0.108 
H1       H      0.84126      0.515797     0.0425863    0.108 
H1       H      0.84126      0.0157974    0.542586     0.108 
H1       H      0.34126      0.515797     0.542586     0.108 
H1       H      0.363551     0.00159786   0.0512586    0.108 
H1       H      0.863551     0.501598     0.0512586    0.108 
H1       H      0.863551     0.00159786   0.551259     0.108 
H1       H      0.363551     0.501598     0.551259     0.108 
H1       H      0.43482      0.0622613    0.0419471    0.108 
H1       H      0.93482      0.562261     0.0419471    0.108 
H1       H      0.93482      0.0622613    0.541947     0.108 
H1       H      0.43482      0.562261     0.541947     0.108 
H1       H      0.398184     0.0396663    0.0199575    0.108 
H1       H      0.898184     0.539666     0.0199575    0.108 
H1       H      0.898184     0.0396663    0.519957     0.108 
H1       H      0.398184     0.539666     0.519957     0.108 
H1       H      0.380481     0.039098     0.124991     0.108 
H1       H      0.880481     0.539098     0.124991     0.108 
H1       H      0.880481     0.039098     0.624991     0.108 
H1       H      0.380481     0.539098     0.624991     0.108 
H1       H      0.375439     0.0655324    0.134905     0.108 
H1       H      0.875439     0.565532     0.134905     0.108 
H1       H      0.875439     0.0655324    0.634905     0.108 
H1       H      0.375439     0.565532     0.634905     0.108 
H1       H      0.414902     0.0557292    0.0970001    0.108 
H1       H      0.914902     0.555729     0.0970001    0.108 
H1       H      0.914902     0.0557292    0.597        0.108 
H1       H      0.414902     0.555729     0.597        0.108 
H1       H      0.412752     0.0818913    0.107759     0.108 
H1       H      0.912752     0.581891     0.107759     0.108 
H1       H      0.912752     0.0818913    0.607759     0.108 
H1       H      0.412752     0.581891     0.607759     0.108 
H1       H      0.257953     0.237544     0.168684     0.108 
H1       H      0.757953     0.737544     0.168684     0.108 
H1       H      0.757953     0.237544     0.668684     0.108 
H1       H      0.257953     0.737544     0.668684     0.108 
Cr1      Cr     0.34473      0.17799      0.48709      1.619 
Cr1      Cr     0.84473      0.67799      0.48709      1.619 
Cr1      Cr     0.84473      0.17799      0.98709      1.619 
Cr1      Cr     0.34473      0.67799      0.98709      1.619 
Cr2      Cr     0.0728004    0.0424603    0.29154      1.35  
Cr2      Cr     0.5728       0.54246      0.29154      1.35  
Cr2      Cr     0.5728       0.0424603    0.79154      1.35  
Cr2      Cr     0.0728004    0.54246      0.79154      1.35  
O2       O      0.10869      0.15982      0.0696396   -0.574 
O2       O      0.60869      0.65982      0.0696396   -0.574 
O2       O      0.60869      0.15982      0.56964     -0.574 
O2       O      0.10869      0.65982      0.56964     -0.574 
O3       O      0.0738998    0.0558699    0.27354     -0.438 
O3       O      0.5739       0.55587      0.27354     -0.438 
O3       O      0.5739       0.0558699    0.77354     -0.438 
O3       O      0.0738998    0.55587      0.77354     -0.438 
O2       O      0.08886      0.0726305    0.1993      -0.574 
O2       O      0.58886      0.572629     0.1993      -0.574 
O2       O      0.58886      0.0726305    0.6993      -0.574 
O2       O      0.08886      0.572629     0.6993      -0.574 
O2       O      0.971219     0.0241603    0.17932     -0.574 
O2       O      0.471219     0.52416      0.17932     -0.574 
O2       O      0.471219     0.0241603    0.67932     -0.574 
O2       O      0.971219     0.52416      0.67932     -0.574 
O3       O      0.96763      0.0219503    0.20477     -0.438 
O3       O      0.46763      0.52195      0.20477     -0.438 
O3       O      0.46763      0.0219503    0.70477     -0.438 
O3       O      0.96763      0.52195      0.70477     -0.438 
O2       O      0.827009     0.17561      0.0195603   -0.574 
O2       O      0.327009     0.67561      0.0195603   -0.574 
O2       O      0.327009     0.17561      0.51956     -0.574 
O2       O      0.827009     0.67561      0.51956     -0.574 
O2       O      0.83776      0.19003      0.00307981  -0.574 
O2       O      0.33776      0.69003      0.00307981  -0.574 
O2       O      0.33776      0.19003      0.50308     -0.574 
O2       O      0.83776      0.69003      0.50308     -0.574 
O3       O      0.83758      0.22279      0.10124     -0.438 
O3       O      0.33758      0.72279      0.10124     -0.438 
O3       O      0.33758      0.22279      0.60124     -0.438 
O3       O      0.83758      0.72279      0.60124     -0.438 
O2       O      0.85774      0.22747      0.11549     -0.574 
O2       O      0.35774      0.72747      0.11549     -0.574 
O2       O      0.35774      0.22747      0.61549     -0.574 
O2       O      0.85774      0.72747      0.61549     -0.574 
O3       O      0.85125      0.14811      0.12448     -0.438 
O3       O      0.35125      0.64811      0.12448     -0.438 
O3       O      0.35125      0.14811      0.62448     -0.438 
O3       O      0.85125      0.64811      0.62448     -0.438 
O2       O      0.87292      0.15693      0.13369     -0.574 
O2       O      0.37292      0.65693      0.13369     -0.574 
O2       O      0.37292      0.15693      0.63369     -0.574 
O2       O      0.87292      0.65693      0.63369     -0.574 
O2       O      0.94362      0.19089      0.0780497   -0.574 
O2       O      0.44362      0.69089      0.0780497   -0.574 
O2       O      0.44362      0.19089      0.57805     -0.574 
O2       O      0.94362      0.69089      0.57805     -0.574 
O2       O      0.89839      0.14622      0.120559    -0.574 
O2       O      0.39839      0.64622      0.120559    -0.574 
O2       O      0.39839      0.14622      0.620559    -0.574 
O2       O      0.89839      0.64622      0.620559    -0.574 
O3       O      0.935229     0.22624      0.0462096   -0.438 
O3       O      0.435231     0.72624      0.0462096   -0.438 
O3       O      0.435231     0.22624      0.54621     -0.438 
O3       O      0.935229     0.72624      0.54621     -0.438 
O2       O      0.93927      0.21912      0.0694505   -0.574 
O2       O      0.43927      0.71912      0.0694505   -0.574 
O2       O      0.43927      0.21912      0.569449    -0.574 
O2       O      0.93927      0.71912      0.569449    -0.574 
O2       O      0.86692      0.25664      0.0727802   -0.574 
O2       O      0.36692      0.75664      0.0727802   -0.574 
O2       O      0.36692      0.25664      0.57278     -0.574 
O2       O      0.86692      0.75664      0.57278     -0.574 
O2       O      0.87647      0.24662      0.0952503   -0.574 
O2       O      0.37647      0.74662      0.0952503   -0.574 
O2       O      0.37647      0.24662      0.59525     -0.574 
O2       O      0.87647      0.74662      0.59525     -0.574 
F1       F      0.0941498    0.03873      0.28913     -0.547 
F1       F      0.59415      0.53873      0.28913     -0.547 
F1       F      0.59415      0.03873      0.78913     -0.547 
F1       F      0.0941498    0.53873      0.78913     -0.547 
C3       C      0.1295       0.14071      0.0693403   -0.058 
C3       C      0.6295       0.64071      0.0693403   -0.058 
C3       C      0.6295       0.14071      0.56934     -0.058 
C3       C      0.1295       0.64071      0.56934     -0.058 
C3       C      0.0816303    0.0620002    0.24493     -0.058 
C3       C      0.58163      0.562        0.24493     -0.058 
C3       C      0.58163      0.0620002    0.74493     -0.058 
C3       C      0.0816303    0.562        0.74493     -0.058 
C3       C      0.08506      0.0652995    0.22948     -0.058 
C3       C      0.58506      0.565299     0.22948     -0.058 
C3       C      0.58506      0.0652995    0.72948     -0.058 
C3       C      0.08506      0.565299     0.72948     -0.058 
C3       C      0.48623      0.497479     0.20309     -0.058 
C3       C      0.98623      0.997479     0.20309     -0.058 
C3       C      0.98623      0.497479     0.70309     -0.058 
C3       C      0.48623      0.997479     0.70309     -0.058 
C1       C      0.976        0.0203299    0.19264      0.496 
C1       C      0.476        0.52033      0.19264      0.496 
C1       C      0.476        0.0203299    0.69264      0.496 
C1       C      0.976        0.52033      0.69264      0.496 
C2       C      0.98755      0.00940035   0.19264     -0.07  
C2       C      0.48755      0.5094       0.19264     -0.07  
C2       C      0.48755      0.00940035   0.69264     -0.07  
C2       C      0.98755      0.5094       0.69264     -0.07  
C3       C      0.99506      0.00632054   0.17859     -0.058 
C3       C      0.49506      0.506319     0.17859     -0.058 
C3       C      0.49506      0.00632054   0.67859     -0.058 
C3       C      0.99506      0.506319     0.67859     -0.058 
C3       C      0.82184      0.19769      0.0407701   -0.058 
C3       C      0.32184      0.69769      0.0407701   -0.058 
C3       C      0.32184      0.19769      0.54077     -0.058 
C3       C      0.82184      0.69769      0.54077     -0.058 
C1       C      0.83022      0.1887       0.0154396    0.496 
C1       C      0.33022      0.6887       0.0154396    0.496 
C1       C      0.33022      0.1887       0.51544      0.496 
C1       C      0.83022      0.6887       0.51544      0.496 
C2       C      0.83111      0.19982      0.02741     -0.07  
C2       C      0.33111      0.69982      0.02741     -0.07  
C2       C      0.33111      0.19982      0.52741     -0.07  
C2       C      0.83111      0.69982      0.52741     -0.07  
C3       C      0.8429       0.21067      0.02803     -0.058 
C3       C      0.3429       0.71067      0.02803     -0.058 
C3       C      0.3429       0.21067      0.52803     -0.058 
C3       C      0.8429       0.71067      0.52803     -0.058 
C3       C      0.842039     0.19184      0.10653     -0.058 
C3       C      0.342039     0.69184      0.10653     -0.058 
C3       C      0.342039     0.19184      0.60653     -0.058 
C3       C      0.842039     0.69184      0.60653     -0.058 
C1       C      0.84671      0.21908      0.11156      0.496 
C1       C      0.34671      0.71908      0.11156      0.496 
C1       C      0.34671      0.21908      0.61156      0.496 
C1       C      0.84671      0.71908      0.61156      0.496 
C2       C      0.84891      0.20404      0.11496     -0.07  
C2       C      0.34891      0.70404      0.11496     -0.07  
C2       C      0.34891      0.20404      0.61496     -0.07  
C2       C      0.84891      0.70404      0.61496     -0.07  
C3       C      0.84472      0.1769       0.11117     -0.058 
C3       C      0.34472      0.6769       0.11117     -0.058 
C3       C      0.34472      0.1769       0.61117     -0.058 
C3       C      0.84472      0.6769       0.61117     -0.058 
C1       C      0.8603       0.15929      0.12691      0.496 
C1       C      0.3603       0.65929      0.12691      0.496 
C1       C      0.3603       0.15929      0.62691      0.496 
C1       C      0.8603       0.65929      0.62691      0.496 
C2       C      0.857689     0.17411      0.1205      -0.07  
C2       C      0.357689     0.67411      0.1205      -0.07  
C2       C      0.357689     0.17411      0.6205      -0.07  
C2       C      0.857689     0.67411      0.6205      -0.07  
C3       C      0.86224      0.201639     0.12254     -0.058 
C3       C      0.36224      0.701639     0.12254     -0.058 
C3       C      0.36224      0.201639     0.62254     -0.058 
C3       C      0.86224      0.701639     0.62254     -0.058 
C3       C      0.865819     0.1865       0.12689     -0.058 
C3       C      0.36582      0.6865       0.12689     -0.058 
C3       C      0.36582      0.1865       0.62689     -0.058 
C3       C      0.865819     0.6865       0.62689     -0.058 
C3       C      0.92951      0.17322      0.0952897   -0.058 
C3       C      0.42951      0.67322      0.0952897   -0.058 
C3       C      0.42951      0.17322      0.59529     -0.058 
C3       C      0.92951      0.67322      0.59529     -0.058 
C3       C      0.91801      0.16515      0.10355     -0.058 
C3       C      0.41801      0.66515      0.10355     -0.058 
C3       C      0.41801      0.16515      0.60355     -0.058 
C3       C      0.91801      0.66515      0.60355     -0.058 
C3       C      0.90706      0.23645      0.05429     -0.058 
C3       C      0.40706      0.73645      0.05429     -0.058 
C3       C      0.40706      0.23645      0.55429     -0.058 
C3       C      0.90706      0.73645      0.55429     -0.058 
C1       C      0.9313       0.22536      0.0598398    0.496 
C1       C      0.4313       0.72536      0.0598398    0.496 
C1       C      0.4313       0.22536      0.55984      0.496 
C1       C      0.9313       0.72536      0.55984      0.496 
C2       C      0.91789      0.23193      0.0648201   -0.07  
C2       C      0.41789      0.73193      0.0648201   -0.07  
C2       C      0.41789      0.23193      0.56482     -0.07  
C2       C      0.91789      0.73193      0.56482     -0.07  
C3       C      0.89422      0.24383      0.05924     -0.058 
C3       C      0.39422      0.74383      0.05924     -0.058 
C3       C      0.39422      0.24383      0.55924     -0.058 
C3       C      0.89422      0.74383      0.55924     -0.058 
C1       C      0.87747      0.24905      0.0808201    0.496 
C1       C      0.37747      0.74905      0.0808201    0.496 
C1       C      0.37747      0.24905      0.58082      0.496 
C1       C      0.87747      0.74905      0.58082      0.496 
C2       C      0.89175      0.24511      0.0747797   -0.07  
C2       C      0.39175      0.74511      0.0747797   -0.07  
C2       C      0.39175      0.24511      0.57478     -0.07  
C2       C      0.89175      0.74511      0.57478     -0.07  
C3       C      0.91484      0.23154      0.0803205   -0.058 
C3       C      0.41484      0.73154      0.0803205   -0.058 
C3       C      0.41484      0.23154      0.58032     -0.058 
C3       C      0.91484      0.73154      0.58032     -0.058 
C3       C      0.90158      0.23829      0.0854201   -0.058 
C3       C      0.40158      0.73829      0.0854201   -0.058 
C3       C      0.40158      0.23829      0.58542     -0.058 
C3       C      0.90158      0.73829      0.58542     -0.058 
H1       H      0.0867006    0.0525054    0.250328     0.108 
H1       H      0.586701     0.552505     0.250328     0.108 
H1       H      0.586701     0.0525054    0.750327     0.108 
H1       H      0.0867006    0.552505     0.750327     0.108 
H1       H      0.0933138    0.0587888    0.223627     0.108 
H1       H      0.593314     0.558789     0.223627     0.108 
H1       H      0.593314     0.0587888    0.723627     0.108 
H1       H      0.0933138    0.558789     0.723627     0.108 
H1       H      0.932217     0.184559     0.0982682    0.108 
H1       H      0.432217     0.684559     0.0982682    0.108 
H1       H      0.432217     0.184559     0.598268     0.108 
H1       H      0.932217     0.684559     0.598268     0.108 
H1       H      0.914125     0.169365     0.114129     0.108 
H1       H      0.414125     0.669365     0.114129     0.108 
H1       H      0.414125     0.169365     0.614129     0.108 
H1       H      0.914125     0.669365     0.614129     0.108 
H1       H      0.131832     0.152376     0.071099     0.108 
H1       H      0.631832     0.652376     0.071099     0.108 
H1       H      0.631832     0.152376     0.571099     0.108 
H1       H      0.131832     0.652376     0.571099     0.108 
H1       H      0.476915     0.497154     0.210699     0.108 
H1       H      0.976915     0.997154     0.210699     0.108 
H1       H      0.976915     0.497154     0.710699     0.108 
H1       H      0.476915     0.997154     0.710699     0.108 
H1       H      0.92256      0.226188     0.0878372    0.108 
H1       H      0.42256      0.726188     0.0878372    0.108 
H1       H      0.42256      0.226188     0.587837     0.108 
H1       H      0.92256      0.726188     0.587837     0.108 
H1       H      0.89895      0.238275     0.0971745    0.108 
H1       H      0.39895      0.738275     0.0971745    0.108 
H1       H      0.39895      0.238275     0.597174     0.108 
H1       H      0.89895      0.738275     0.597174     0.108 
H1       H      0.90874      0.234202     0.0425863    0.108 
H1       H      0.40874      0.734202     0.0425863    0.108 
H1       H      0.40874      0.234202     0.542586     0.108 
H1       H      0.90874      0.734202     0.542586     0.108 
H1       H      0.886449     0.248402     0.0512586    0.108 
H1       H      0.386449     0.748402     0.0512586    0.108 
H1       H      0.386449     0.248402     0.551259     0.108 
H1       H      0.886449     0.748402     0.551259     0.108 
H1       H      0.81518      0.187739     0.0419471    0.108 
H1       H      0.31518      0.687738     0.0419471    0.108 
H1       H      0.31518      0.187739     0.541947     0.108 
H1       H      0.81518      0.687738     0.541947     0.108 
H1       H      0.851816     0.210333     0.0199575    0.108 
H1       H      0.351816     0.710333     0.0199575    0.108 
H1       H      0.351816     0.210333     0.519957     0.108 
H1       H      0.851816     0.710333     0.519957     0.108 
H1       H      0.869518     0.210901     0.124991     0.108 
H1       H      0.369518     0.710901     0.124991     0.108 
H1       H      0.369518     0.210901     0.624991     0.108 
H1       H      0.869518     0.710901     0.624991     0.108 
H1       H      0.87456      0.184467     0.134905     0.108 
H1       H      0.37456      0.684467     0.134905     0.108 
H1       H      0.37456      0.184467     0.634905     0.108 
H1       H      0.87456      0.684467     0.634905     0.108 
H1       H      0.835099     0.194271     0.0970001    0.108 
H1       H      0.335099     0.69427      0.0970001    0.108 
H1       H      0.335099     0.194271     0.597        0.108 
H1       H      0.835099     0.69427      0.597        0.108 
H1       H      0.837247     0.168108     0.107759     0.108 
H1       H      0.337247     0.668108     0.107759     0.108 
H1       H      0.337247     0.168108     0.607759     0.108 
H1       H      0.837247     0.668108     0.607759     0.108 
H1       H      0.992047     0.0124565    0.168684     0.108 
H1       H      0.492047     0.512457     0.168684     0.108 
H1       H      0.492047     0.0124565    0.668684     0.108 
H1       H      0.992047     0.512457     0.668684     0.108 
Cr1      Cr     0.84473      0.0720105    0.262909     1.619 
Cr1      Cr     0.34473      0.57201      0.262909     1.619 
Cr1      Cr     0.34473      0.0720105    0.762909     1.619 
Cr1      Cr     0.84473      0.57201      0.762909     1.619 
Cr1      Cr     0.5728       0.20754      0.45846      1.619 
Cr1      Cr     0.0728004    0.70754      0.45846      1.619 
Cr1      Cr     0.0728004    0.20754      0.95846      1.619 
Cr1      Cr     0.5728       0.70754      0.95846      1.619 
O2       O      0.10869      0.0901799    0.18036     -0.574 
O2       O      0.60869      0.59018      0.18036     -0.574 
O2       O      0.60869      0.0901799    0.68036     -0.574 
O2       O      0.10869      0.59018      0.68036     -0.574 
O2       O      0.5739       0.19413      0.47646     -0.574 
O2       O      0.0738998    0.69413      0.47646     -0.574 
O2       O      0.0738998    0.19413      0.97646     -0.574 
O2       O      0.5739       0.69413      0.97646     -0.574 
O2       O      0.08886      0.17737      0.0507005   -0.574 
O2       O      0.58886      0.67737      0.0507005   -0.574 
O2       O      0.58886      0.17737      0.5507      -0.574 
O2       O      0.08886      0.67737      0.5507      -0.574 
O2       O      0.971219     0.22584      0.0706804   -0.574 
O2       O      0.471219     0.72584      0.0706804   -0.574 
O2       O      0.471219     0.22584      0.57068     -0.574 
O2       O      0.971219     0.72584      0.57068     -0.574 
O3       O      0.96763      0.22805      0.0452295   -0.438 
O3       O      0.46763      0.72805      0.0452295   -0.438 
O3       O      0.46763      0.22805      0.545229    -0.438 
O3       O      0.96763      0.72805      0.545229    -0.438 
O2       O      0.827009     0.0743904    0.23044     -0.574 
O2       O      0.327009     0.57439      0.23044     -0.574 
O2       O      0.327009     0.0743904    0.73044     -0.574 
O2       O      0.827009     0.57439      0.73044     -0.574 
O2       O      0.83776      0.0599703    0.24692     -0.574 
O2       O      0.33776      0.55997      0.24692     -0.574 
O2       O      0.33776      0.0599703    0.74692     -0.574 
O2       O      0.83776      0.55997      0.74692     -0.574 
O2       O      0.83758      0.0272097    0.148759    -0.574 
O2       O      0.33758      0.52721      0.148759    -0.574 
O2       O      0.33758      0.0272097    0.648759    -0.574 
O2       O      0.83758      0.52721      0.648759    -0.574 
O3       O      0.85774      0.0225298    0.13451     -0.438 
O3       O      0.35774      0.52253      0.13451     -0.438 
O3       O      0.35774      0.0225298    0.63451     -0.438 
O3       O      0.85774      0.52253      0.63451     -0.438 
O3       O      0.85125      0.10189      0.12552     -0.438 
O3       O      0.35125      0.60189      0.12552     -0.438 
O3       O      0.35125      0.10189      0.62552     -0.438 
O3       O      0.85125      0.60189      0.62552     -0.438 
O2       O      0.87292      0.0930696    0.116311    -0.574 
O2       O      0.37292      0.59307      0.116311    -0.574 
O2       O      0.37292      0.0930696    0.616309    -0.574 
O2       O      0.87292      0.59307      0.616309    -0.574 
O2       O      0.94362      0.0591095    0.17195     -0.574 
O2       O      0.44362      0.559109     0.17195     -0.574 
O2       O      0.44362      0.0591095    0.67195     -0.574 
O2       O      0.94362      0.559109     0.67195     -0.574 
O2       O      0.89839      0.10378      0.12944     -0.574 
O2       O      0.39839      0.60378      0.12944     -0.574 
O2       O      0.39839      0.10378      0.62944     -0.574 
O2       O      0.89839      0.60378      0.62944     -0.574 
O3       O      0.935229     0.0237597    0.20379     -0.438 
O3       O      0.435231     0.52376      0.20379     -0.438 
O3       O      0.435231     0.0237597    0.70379     -0.438 
O3       O      0.935229     0.52376      0.70379     -0.438 
O2       O      0.93927      0.0308803    0.18055     -0.574 
O2       O      0.43927      0.53088      0.18055     -0.574 
O2       O      0.43927      0.0308803    0.68055     -0.574 
O2       O      0.93927      0.53088      0.68055     -0.574 
O2       O      0.36692      0.49336      0.17722     -0.574 
O2       O      0.86692      0.99336      0.17722     -0.574 
O2       O      0.86692      0.49336      0.67722     -0.574 
O2       O      0.36692      0.99336      0.67722     -0.574 
O3       O      0.87647      0.00338026   0.15475     -0.438 
O3       O      0.37647      0.50338      0.15475     -0.438 
O3       O      0.37647      0.00338026   0.65475     -0.438 
O3       O      0.87647      0.50338      0.65475     -0.438 
C3       C      0.1295       0.10929      0.18066     -0.058 
C3       C      0.6295       0.60929      0.18066     -0.058 
C3       C      0.6295       0.10929      0.68066     -0.058 
C3       C      0.1295       0.60929      0.68066     -0.058 
C3       C      0.0816303    0.188        0.00507038  -0.058 
C3       C      0.58163      0.688        0.00507038  -0.058 
C3       C      0.58163      0.188        0.50507     -0.058 
C3       C      0.0816303    0.688        0.50507     -0.058 
C3       C      0.08506      0.1847       0.0205201   -0.058 
C3       C      0.58506      0.6847       0.0205201   -0.058 
C3       C      0.58506      0.1847       0.52052     -0.058 
C3       C      0.08506      0.6847       0.52052     -0.058 
C3       C      0.98623      0.25252      0.0469095   -0.058 
C3       C      0.48623      0.75252      0.0469095   -0.058 
C3       C      0.48623      0.25252      0.546909    -0.058 
C3       C      0.98623      0.75252      0.546909    -0.058 
C1       C      0.976        0.22967      0.0573597    0.496 
C1       C      0.476        0.72967      0.0573597    0.496 
C1       C      0.476        0.22967      0.55736      0.496 
C1       C      0.976        0.72967      0.55736      0.496 
C2       C      0.98755      0.2406       0.0573597   -0.07  
C2       C      0.48755      0.7406       0.0573597   -0.07  
C2       C      0.48755      0.2406       0.55736     -0.07  
C2       C      0.98755      0.7406       0.55736     -0.07  
C3       C      0.99506      0.24368      0.0714096   -0.058 
C3       C      0.49506      0.74368      0.0714096   -0.058 
C3       C      0.49506      0.24368      0.57141     -0.058 
C3       C      0.99506      0.74368      0.57141     -0.058 
C3       C      0.82184      0.0523096    0.20923     -0.058 
C3       C      0.32184      0.55231      0.20923     -0.058 
C3       C      0.32184      0.0523096    0.709229    -0.058 
C3       C      0.82184      0.55231      0.709229    -0.058 
C1       C      0.83022      0.0613003    0.23456      0.496 
C1       C      0.33022      0.5613       0.23456      0.496 
C1       C      0.33022      0.0613003    0.73456      0.496 
C1       C      0.83022      0.5613       0.73456      0.496 
C2       C      0.83111      0.0501795    0.222589    -0.07  
C2       C      0.33111      0.550179     0.222589    -0.07  
C2       C      0.33111      0.0501795    0.722589    -0.07  
C2       C      0.83111      0.550179     0.722589    -0.07  
C3       C      0.8429       0.0393298    0.221969    -0.058 
C3       C      0.3429       0.53933      0.221969    -0.058 
C3       C      0.3429       0.0393298    0.721969    -0.058 
C3       C      0.8429       0.53933      0.721969    -0.058 
C3       C      0.842039     0.0581598    0.14347     -0.058 
C3       C      0.342039     0.55816      0.14347     -0.058 
C3       C      0.342039     0.0581598    0.64347     -0.058 
C3       C      0.842039     0.55816      0.64347     -0.058 
C1       C      0.84671      0.0309197    0.13844      0.496 
C1       C      0.34671      0.53092      0.13844      0.496 
C1       C      0.34671      0.0309197    0.63844      0.496 
C1       C      0.84671      0.53092      0.63844      0.496 
C2       C      0.84891      0.0459598    0.13504     -0.07  
C2       C      0.34891      0.54596      0.13504     -0.07  
C2       C      0.34891      0.0459598    0.63504     -0.07  
C2       C      0.84891      0.54596      0.63504     -0.07  
C3       C      0.84472      0.0730997    0.13883     -0.058 
C3       C      0.34472      0.5731       0.13883     -0.058 
C3       C      0.34472      0.0730997    0.63883     -0.058 
C3       C      0.84472      0.5731       0.63883     -0.058 
C1       C      0.8603       0.0907099    0.12309      0.496 
C1       C      0.3603       0.59071      0.12309      0.496 
C1       C      0.3603       0.0907099    0.62309      0.496 
C1       C      0.8603       0.59071      0.62309      0.496 
C2       C      0.857689     0.0758904    0.1295      -0.07  
C2       C      0.357689     0.57589      0.1295      -0.07  
C2       C      0.357689     0.0758904    0.6295      -0.07  
C2       C      0.857689     0.57589      0.6295      -0.07  
C3       C      0.86224      0.0483599    0.12746     -0.058 
C3       C      0.36224      0.54836      0.12746     -0.058 
C3       C      0.36224      0.0483599    0.62746     -0.058 
C3       C      0.86224      0.54836      0.62746     -0.058 
C3       C      0.865819     0.0635002    0.12311     -0.058 
C3       C      0.36582      0.5635       0.12311     -0.058 
C3       C      0.36582      0.0635002    0.62311     -0.058 
C3       C      0.865819     0.5635       0.62311     -0.058 
C3       C      0.92951      0.0767804    0.15471     -0.058 
C3       C      0.42951      0.57678      0.15471     -0.058 
C3       C      0.42951      0.0767804    0.65471     -0.058 
C3       C      0.92951      0.57678      0.65471     -0.058 
C3       C      0.91801      0.0848496    0.14645     -0.058 
C3       C      0.41801      0.58485      0.14645     -0.058 
C3       C      0.41801      0.0848496    0.64645     -0.058 
C3       C      0.91801      0.58485      0.64645     -0.058 
C3       C      0.90706      0.0135503    0.195709    -0.058 
C3       C      0.40706      0.51355      0.195709    -0.058 
C3       C      0.40706      0.0135503    0.695709    -0.058 
C3       C      0.90706      0.51355      0.695709    -0.058 
C1       C      0.9313       0.0246396    0.19016      0.496 
C1       C      0.4313       0.52464      0.19016      0.496 
C1       C      0.4313       0.0246396    0.69016      0.496 
C1       C      0.9313       0.52464      0.69016      0.496 
C2       C      0.91789      0.0180704    0.18518     -0.07  
C2       C      0.41789      0.51807      0.18518     -0.07  
C2       C      0.41789      0.0180704    0.68518     -0.07  
C2       C      0.91789      0.51807      0.68518     -0.07  
C3       C      0.89422      0.00616976   0.190759    -0.058 
C3       C      0.39422      0.50617      0.190759    -0.058 
C3       C      0.39422      0.00616976   0.690759    -0.058 
C3       C      0.89422      0.50617      0.690759    -0.058 
C1       C      0.87747      0.000949712  0.16918      0.496 
C1       C      0.37747      0.50095      0.16918      0.496 
C1       C      0.37747      0.000949712  0.669179     0.496 
C1       C      0.87747      0.50095      0.669179     0.496 
C2       C      0.89175      0.00489034   0.17522     -0.07  
C2       C      0.39175      0.50489      0.17522     -0.07  
C2       C      0.39175      0.00489034   0.67522     -0.07  
C2       C      0.89175      0.50489      0.67522     -0.07  
C3       C      0.91484      0.0184598    0.16968     -0.058 
C3       C      0.41484      0.51846      0.16968     -0.058 
C3       C      0.41484      0.0184598    0.66968     -0.058 
C3       C      0.91484      0.51846      0.66968     -0.058 
C3       C      0.90158      0.0117105    0.16458     -0.058 
C3       C      0.40158      0.51171      0.16458     -0.058 
C3       C      0.40158      0.0117105    0.66458     -0.058 
C3       C      0.90158      0.51171      0.66458     -0.058 
H1       H      0.586701     0.197495     0.499673     0.108 
H1       H      0.0867006    0.697495     0.499673     0.108 
H1       H      0.0867006    0.197495     0.999673     0.108 
H1       H      0.586701     0.697495     0.999673     0.108 
H1       H      0.0933138    0.191211     0.0263737    0.108 
H1       H      0.593314     0.691211     0.0263737    0.108 
H1       H      0.593314     0.191211     0.526374     0.108 
H1       H      0.0933138    0.691211     0.526374     0.108 
H1       H      0.932217     0.0654413    0.151732     0.108 
H1       H      0.432217     0.565441     0.151732     0.108 
H1       H      0.432217     0.0654413    0.651732     0.108 
H1       H      0.932217     0.565441     0.651732     0.108 
H1       H      0.914125     0.0806355    0.135871     0.108 
H1       H      0.414125     0.580636     0.135871     0.108 
H1       H      0.414125     0.0806355    0.635871     0.108 
H1       H      0.914125     0.580636     0.635871     0.108 
H1       H      0.131832     0.0976246    0.1789       0.108 
H1       H      0.631832     0.597625     0.1789       0.108 
H1       H      0.631832     0.0976246    0.6789       0.108 
H1       H      0.131832     0.597625     0.6789       0.108 
H1       H      0.976915     0.252846     0.0393005    0.108 
H1       H      0.476915     0.752846     0.0393005    0.108 
H1       H      0.476915     0.252846     0.539301     0.108 
H1       H      0.976915     0.752846     0.539301     0.108 
H1       H      0.92256      0.0238126    0.162162     0.108 
H1       H      0.42256      0.523813     0.162162     0.108 
H1       H      0.42256      0.0238126    0.662162     0.108 
H1       H      0.92256      0.523813     0.662162     0.108 
H1       H      0.89895      0.011724     0.152826     0.108 
H1       H      0.39895      0.511724     0.152826     0.108 
H1       H      0.39895      0.011724     0.652826     0.108 
H1       H      0.89895      0.511724     0.652826     0.108 
H1       H      0.90874      0.0157974    0.207413     0.108 
H1       H      0.40874      0.515797     0.207413     0.108 
H1       H      0.40874      0.0157974    0.707413     0.108 
H1       H      0.90874      0.515797     0.707413     0.108 
H1       H      0.886449     0.00159786   0.198741     0.108 
H1       H      0.386449     0.501598     0.198741     0.108 
H1       H      0.386449     0.00159786   0.698741     0.108 
H1       H      0.886449     0.501598     0.698741     0.108 
H1       H      0.81518      0.0622613    0.208052     0.108 
H1       H      0.31518      0.562261     0.208052     0.108 
H1       H      0.31518      0.0622613    0.708052     0.108 
H1       H      0.81518      0.562261     0.708052     0.108 
H1       H      0.851816     0.0396663    0.230042     0.108 
H1       H      0.351816     0.539666     0.230042     0.108 
H1       H      0.351816     0.0396663    0.730042     0.108 
H1       H      0.851816     0.539666     0.730042     0.108 
H1       H      0.869518     0.039098     0.125009     0.108 
H1       H      0.369518     0.539098     0.125009     0.108 
H1       H      0.369518     0.039098     0.625009     0.108 
H1       H      0.869518     0.539098     0.625009     0.108 
H1       H      0.87456      0.0655324    0.115095     0.108 
H1       H      0.37456      0.565532     0.115095     0.108 
H1       H      0.37456      0.0655324    0.615095     0.108 
H1       H      0.87456      0.565532     0.615095     0.108 
H1       H      0.835099     0.0557292    0.153        0.108 
H1       H      0.335099     0.555729     0.153        0.108 
H1       H      0.335099     0.0557292    0.653        0.108 
H1       H      0.835099     0.555729     0.653        0.108 
H1       H      0.837247     0.0818913    0.142242     0.108 
H1       H      0.337247     0.581891     0.142242     0.108 
H1       H      0.337247     0.0818913    0.642242     0.108 
H1       H      0.837247     0.581891     0.642242     0.108 
H1       H      0.992047     0.237544     0.0813152    0.108 
H1       H      0.492047     0.737544     0.0813152    0.108 
H1       H      0.492047     0.237544     0.581315     0.108 
H1       H      0.992047     0.737544     0.581315     0.108 
Cr1      Cr     0.40527      0.17799      0.262909     1.619 
Cr1      Cr     0.90527      0.67799      0.262909     1.619 
Cr1      Cr     0.90527      0.17799      0.762909     1.619 
Cr1      Cr     0.40527      0.67799      0.762909     1.619 
Cr2      Cr     0.6772       0.0424603    0.45846      1.35  
Cr2      Cr     0.1772       0.54246      0.45846      1.35  
Cr2      Cr     0.1772       0.0424603    0.95846      1.35  
Cr2      Cr     0.6772       0.54246      0.95846      1.35  
O2       O      0.14131      0.15982      0.18036     -0.574 
O2       O      0.64131      0.65982      0.18036     -0.574 
O2       O      0.64131      0.15982      0.68036     -0.574 
O2       O      0.14131      0.65982      0.68036     -0.574 
O3       O      0.6761       0.0558699    0.47646     -0.438 
O3       O      0.1761       0.55587      0.47646     -0.438 
O3       O      0.1761       0.0558699    0.97646     -0.438 
O3       O      0.6761       0.55587      0.97646     -0.438 
O2       O      0.161139     0.0726305    0.0507005   -0.574 
O2       O      0.661139     0.572629     0.0507005   -0.574 
O2       O      0.661139     0.0726305    0.5507      -0.574 
O2       O      0.161139     0.572629     0.5507      -0.574 
O2       O      0.27878      0.0241603    0.0706804   -0.574 
O2       O      0.77878      0.52416      0.0706804   -0.574 
O2       O      0.77878      0.0241603    0.57068     -0.574 
O2       O      0.27878      0.52416      0.57068     -0.574 
O2       O      0.28237      0.0219503    0.0452295   -0.574 
O2       O      0.78237      0.52195      0.0452295   -0.574 
O2       O      0.78237      0.0219503    0.545229    -0.574 
O2       O      0.28237      0.52195      0.545229    -0.574 
O2       O      0.42299      0.17561      0.23044     -0.574 
O2       O      0.92299      0.67561      0.23044     -0.574 
O2       O      0.92299      0.17561      0.73044     -0.574 
O2       O      0.42299      0.67561      0.73044     -0.574 
O2       O      0.41224      0.19003      0.24692     -0.574 
O2       O      0.912239     0.69003      0.24692     -0.574 
O2       O      0.912239     0.19003      0.74692     -0.574 
O2       O      0.41224      0.69003      0.74692     -0.574 
O2       O      0.412419     0.22279      0.148759    -0.574 
O2       O      0.912419     0.72279      0.148759    -0.574 
O2       O      0.912419     0.22279      0.648759    -0.574 
O2       O      0.412419     0.72279      0.648759    -0.574 
O3       O      0.392259     0.22747      0.13451     -0.438 
O3       O      0.892259     0.72747      0.13451     -0.438 
O3       O      0.892259     0.22747      0.63451     -0.438 
O3       O      0.392259     0.72747      0.63451     -0.438 
O3       O      0.39875      0.14811      0.12552     -0.438 
O3       O      0.89875      0.64811      0.12552     -0.438 
O3       O      0.89875      0.14811      0.62552     -0.438 
O3       O      0.39875      0.64811      0.62552     -0.438 
O2       O      0.37708      0.15693      0.116311    -0.574 
O2       O      0.87708      0.65693      0.116311    -0.574 
O2       O      0.87708      0.15693      0.616309    -0.574 
O2       O      0.37708      0.65693      0.616309    -0.574 
O3       O      0.30638      0.19089      0.17195     -0.438 
O3       O      0.80638      0.69089      0.17195     -0.438 
O3       O      0.80638      0.19089      0.67195     -0.438 
O3       O      0.30638      0.69089      0.67195     -0.438 
O2       O      0.35161      0.14622      0.12944     -0.574 
O2       O      0.85161      0.64622      0.12944     -0.574 
O2       O      0.85161      0.14622      0.62944     -0.574 
O2       O      0.35161      0.64622      0.62944     -0.574 
O2       O      0.31477      0.22624      0.20379     -0.574 
O2       O      0.81477      0.72624      0.20379     -0.574 
O2       O      0.81477      0.22624      0.70379     -0.574 
O2       O      0.31477      0.72624      0.70379     -0.574 
O3       O      0.31073      0.21912      0.18055     -0.438 
O3       O      0.81073      0.71912      0.18055     -0.438 
O3       O      0.81073      0.21912      0.68055     -0.438 
O3       O      0.31073      0.71912      0.68055     -0.438 
O2       O      0.38308      0.25664      0.17722     -0.574 
O2       O      0.88308      0.75664      0.17722     -0.574 
O2       O      0.88308      0.25664      0.67722     -0.574 
O2       O      0.38308      0.75664      0.67722     -0.574 
O3       O      0.37353      0.24662      0.15475     -0.438 
O3       O      0.87353      0.74662      0.15475     -0.438 
O3       O      0.87353      0.24662      0.65475     -0.438 
O3       O      0.37353      0.74662      0.65475     -0.438 
F1       F      0.65585      0.03873      0.460869    -0.547 
F1       F      0.15585      0.53873      0.460869    -0.547 
F1       F      0.15585      0.03873      0.960869    -0.547 
F1       F      0.65585      0.53873      0.960869    -0.547 
C3       C      0.1205       0.14071      0.18066     -0.058 
C3       C      0.6205       0.64071      0.18066     -0.058 
C3       C      0.6205       0.14071      0.68066     -0.058 
C3       C      0.1205       0.64071      0.68066     -0.058 
C3       C      0.16837      0.0620002    0.00507038  -0.058 
C3       C      0.66837      0.562        0.00507038  -0.058 
C3       C      0.66837      0.0620002    0.50507     -0.058 
C3       C      0.16837      0.562        0.50507     -0.058 
C3       C      0.164941     0.0652995    0.0205201   -0.058 
C3       C      0.664939     0.565299     0.0205201   -0.058 
C3       C      0.664939     0.0652995    0.52052     -0.058 
C3       C      0.164941     0.565299     0.52052     -0.058 
C3       C      0.76377      0.497479     0.0469095   -0.058 
C3       C      0.26377      0.997479     0.0469095   -0.058 
C3       C      0.26377      0.497479     0.546909    -0.058 
C3       C      0.76377      0.997479     0.546909    -0.058 
C1       C      0.274        0.0203299    0.0573597    0.496 
C1       C      0.774        0.52033      0.0573597    0.496 
C1       C      0.774        0.0203299    0.55736      0.496 
C1       C      0.274        0.52033      0.55736      0.496 
C2       C      0.26245      0.00940035   0.0573597   -0.07  
C2       C      0.76245      0.5094       0.0573597   -0.07  
C2       C      0.76245      0.00940035   0.55736     -0.07  
C2       C      0.26245      0.5094       0.55736     -0.07  
C3       C      0.25494      0.00632054   0.0714096   -0.058 
C3       C      0.75494      0.506319     0.0714096   -0.058 
C3       C      0.75494      0.00632054   0.57141     -0.058 
C3       C      0.25494      0.506319     0.57141     -0.058 
C3       C      0.428159     0.19769      0.20923     -0.058 
C3       C      0.928159     0.69769      0.20923     -0.058 
C3       C      0.928159     0.19769      0.709229    -0.058 
C3       C      0.428159     0.69769      0.709229    -0.058 
C1       C      0.41978      0.1887       0.23456      0.496 
C1       C      0.91978      0.6887       0.23456      0.496 
C1       C      0.91978      0.1887       0.73456      0.496 
C1       C      0.41978      0.6887       0.73456      0.496 
C2       C      0.41889      0.19982      0.222589    -0.07  
C2       C      0.91889      0.69982      0.222589    -0.07  
C2       C      0.91889      0.19982      0.722589    -0.07  
C2       C      0.41889      0.69982      0.722589    -0.07  
C3       C      0.4071       0.21067      0.221969    -0.058 
C3       C      0.9071       0.71067      0.221969    -0.058 
C3       C      0.9071       0.21067      0.721969    -0.058 
C3       C      0.4071       0.71067      0.721969    -0.058 
C3       C      0.40796      0.19184      0.14347     -0.058 
C3       C      0.90796      0.69184      0.14347     -0.058 
C3       C      0.90796      0.19184      0.64347     -0.058 
C3       C      0.40796      0.69184      0.64347     -0.058 
C1       C      0.40329      0.21908      0.13844      0.496 
C1       C      0.90329      0.71908      0.13844      0.496 
C1       C      0.90329      0.21908      0.63844      0.496 
C1       C      0.40329      0.71908      0.63844      0.496 
C2       C      0.40109      0.20404      0.13504     -0.07  
C2       C      0.90109      0.70404      0.13504     -0.07  
C2       C      0.90109      0.20404      0.63504     -0.07  
C2       C      0.40109      0.70404      0.63504     -0.07  
C3       C      0.40528      0.1769       0.13883     -0.058 
C3       C      0.90528      0.6769       0.13883     -0.058 
C3       C      0.90528      0.1769       0.63883     -0.058 
C3       C      0.40528      0.6769       0.63883     -0.058 
C1       C      0.389699     0.15929      0.12309      0.496 
C1       C      0.889699     0.65929      0.12309      0.496 
C1       C      0.889699     0.15929      0.62309      0.496 
C1       C      0.389699     0.65929      0.62309      0.496 
C2       C      0.39231      0.17411      0.1295      -0.07  
C2       C      0.89231      0.67411      0.1295      -0.07  
C2       C      0.89231      0.17411      0.6295      -0.07  
C2       C      0.39231      0.67411      0.6295      -0.07  
C3       C      0.38776      0.201639     0.12746     -0.058 
C3       C      0.88776      0.701639     0.12746     -0.058 
C3       C      0.88776      0.201639     0.62746     -0.058 
C3       C      0.38776      0.701639     0.62746     -0.058 
C3       C      0.38418      0.1865       0.12311     -0.058 
C3       C      0.88418      0.6865       0.12311     -0.058 
C3       C      0.88418      0.1865       0.62311     -0.058 
C3       C      0.38418      0.6865       0.62311     -0.058 
C3       C      0.32049      0.17322      0.15471     -0.058 
C3       C      0.82049      0.67322      0.15471     -0.058 
C3       C      0.82049      0.17322      0.65471     -0.058 
C3       C      0.32049      0.67322      0.65471     -0.058 
C3       C      0.33199      0.16515      0.14645     -0.058 
C3       C      0.83199      0.66515      0.14645     -0.058 
C3       C      0.83199      0.16515      0.64645     -0.058 
C3       C      0.33199      0.66515      0.64645     -0.058 
C3       C      0.34294      0.23645      0.195709    -0.058 
C3       C      0.84294      0.73645      0.195709    -0.058 
C3       C      0.84294      0.23645      0.695709    -0.058 
C3       C      0.34294      0.73645      0.695709    -0.058 
C1       C      0.318699     0.22536      0.19016      0.496 
C1       C      0.818699     0.72536      0.19016      0.496 
C1       C      0.818699     0.22536      0.69016      0.496 
C1       C      0.318699     0.72536      0.69016      0.496 
C2       C      0.33211      0.23193      0.18518     -0.07  
C2       C      0.83211      0.73193      0.18518     -0.07  
C2       C      0.83211      0.23193      0.68518     -0.07  
C2       C      0.33211      0.73193      0.68518     -0.07  
C3       C      0.35578      0.24383      0.190759    -0.058 
C3       C      0.85578      0.74383      0.190759    -0.058 
C3       C      0.85578      0.24383      0.690759    -0.058 
C3       C      0.35578      0.74383      0.690759    -0.058 
C1       C      0.37253      0.24905      0.16918      0.496 
C1       C      0.87253      0.74905      0.16918      0.496 
C1       C      0.87253      0.24905      0.669179     0.496 
C1       C      0.37253      0.74905      0.669179     0.496 
C2       C      0.35825      0.24511      0.17522     -0.07  
C2       C      0.85825      0.74511      0.17522     -0.07  
C2       C      0.85825      0.24511      0.67522     -0.07  
C2       C      0.35825      0.74511      0.67522     -0.07  
C3       C      0.33516      0.23154      0.16968     -0.058 
C3       C      0.83516      0.73154      0.16968     -0.058 
C3       C      0.83516      0.23154      0.66968     -0.058 
C3       C      0.33516      0.73154      0.66968     -0.058 
C3       C      0.34842      0.23829      0.16458     -0.058 
C3       C      0.84842      0.73829      0.16458     -0.058 
C3       C      0.84842      0.23829      0.66458     -0.058 
C3       C      0.34842      0.73829      0.66458     -0.058 
H1       H      0.6633       0.0525054    0.499673     0.108 
H1       H      0.1633       0.552505     0.499673     0.108 
H1       H      0.1633       0.0525054    0.999673     0.108 
H1       H      0.6633       0.552505     0.999673     0.108 
H1       H      0.156687     0.0587888    0.0263737    0.108 
H1       H      0.656687     0.558789     0.0263737    0.108 
H1       H      0.656687     0.0587888    0.526374     0.108 
H1       H      0.156687     0.558789     0.526374     0.108 
H1       H      0.317782     0.184559     0.151732     0.108 
H1       H      0.817782     0.684559     0.151732     0.108 
H1       H      0.817782     0.184559     0.651732     0.108 
H1       H      0.317782     0.684559     0.651732     0.108 
H1       H      0.335875     0.169365     0.135871     0.108 
H1       H      0.835875     0.669365     0.135871     0.108 
H1       H      0.835875     0.169365     0.635871     0.108 
H1       H      0.335875     0.669365     0.635871     0.108 
H1       H      0.118168     0.152376     0.1789       0.108 
H1       H      0.618168     0.652376     0.1789       0.108 
H1       H      0.618168     0.152376     0.6789       0.108 
H1       H      0.118168     0.652376     0.6789       0.108 
H1       H      0.773084     0.497154     0.0393005    0.108 
H1       H      0.273085     0.997154     0.0393005    0.108 
H1       H      0.273085     0.497154     0.539301     0.108 
H1       H      0.773084     0.997154     0.539301     0.108 
H1       H      0.327439     0.226188     0.162162     0.108 
H1       H      0.827439     0.726188     0.162162     0.108 
H1       H      0.827439     0.226188     0.662162     0.108 
H1       H      0.327439     0.726188     0.662162     0.108 
H1       H      0.35105      0.238275     0.152826     0.108 
H1       H      0.85105      0.738275     0.152826     0.108 
H1       H      0.85105      0.238275     0.652826     0.108 
H1       H      0.35105      0.738275     0.652826     0.108 
H1       H      0.34126      0.234202     0.207413     0.108 
H1       H      0.84126      0.734202     0.207413     0.108 
H1       H      0.84126      0.234202     0.707413     0.108 
H1       H      0.34126      0.734202     0.707413     0.108 
H1       H      0.363551     0.248402     0.198741     0.108 
H1       H      0.863551     0.748402     0.198741     0.108 
H1       H      0.863551     0.248402     0.698741     0.108 
H1       H      0.363551     0.748402     0.698741     0.108 
H1       H      0.43482      0.187739     0.208052     0.108 
H1       H      0.93482      0.687738     0.208052     0.108 
H1       H      0.93482      0.187739     0.708052     0.108 
H1       H      0.43482      0.687738     0.708052     0.108 
H1       H      0.398184     0.210333     0.230042     0.108 
H1       H      0.898184     0.710333     0.230042     0.108 
H1       H      0.898184     0.210333     0.730042     0.108 
H1       H      0.398184     0.710333     0.730042     0.108 
H1       H      0.380481     0.210901     0.125009     0.108 
H1       H      0.880481     0.710901     0.125009     0.108 
H1       H      0.880481     0.210901     0.625009     0.108 
H1       H      0.380481     0.710901     0.625009     0.108 
H1       H      0.375439     0.184467     0.115095     0.108 
H1       H      0.875439     0.684467     0.115095     0.108 
H1       H      0.875439     0.184467     0.615095     0.108 
H1       H      0.375439     0.684467     0.615095     0.108 
H1       H      0.414902     0.194271     0.153        0.108 
H1       H      0.914902     0.69427      0.153        0.108 
H1       H      0.914902     0.194271     0.653        0.108 
H1       H      0.414902     0.69427      0.653        0.108 
H1       H      0.412752     0.168108     0.142242     0.108 
H1       H      0.912752     0.668108     0.142242     0.108 
H1       H      0.912752     0.168108     0.642242     0.108 
H1       H      0.412752     0.668108     0.642242     0.108 
H1       H      0.257953     0.0124565    0.0813152    0.108 
H1       H      0.757953     0.512457     0.0813152    0.108 
H1       H      0.757953     0.0124565    0.581315     0.108 
H1       H      0.257953     0.512457     0.581315     0.108 
Cr1      Cr     0.98709      0.40527      0.0720105    1.619 
Cr1      Cr     0.48709      0.90527      0.0720105    1.619 
Cr1      Cr     0.48709      0.40527      0.57201      1.619 
Cr1      Cr     0.98709      0.90527      0.57201      1.619 
Cr1      Cr     0.29154      0.1772       0.20754      1.619 
Cr1      Cr     0.79154      0.6772       0.20754      1.619 
Cr1      Cr     0.79154      0.1772       0.70754      1.619 
Cr1      Cr     0.29154      0.6772       0.70754      1.619 
O2       O      0.0696396    0.14131      0.0901799   -0.574 
O2       O      0.56964      0.64131      0.0901799   -0.574 
O2       O      0.56964      0.14131      0.59018     -0.574 
O2       O      0.0696396    0.64131      0.59018     -0.574 
O2       O      0.27354      0.1761       0.19413     -0.574 
O2       O      0.77354      0.6761       0.19413     -0.574 
O2       O      0.77354      0.1761       0.69413     -0.574 
O2       O      0.27354      0.6761       0.69413     -0.574 
O3       O      0.1993       0.161139     0.17737     -0.438 
O3       O      0.6993       0.661139     0.17737     -0.438 
O3       O      0.6993       0.161139     0.67737     -0.438 
O3       O      0.1993       0.661139     0.67737     -0.438 
O3       O      0.17932      0.27878      0.22584     -0.438 
O3       O      0.67932      0.77878      0.22584     -0.438 
O3       O      0.67932      0.27878      0.72584     -0.438 
O3       O      0.17932      0.77878      0.72584     -0.438 
O2       O      0.20477      0.28237      0.22805     -0.574 
O2       O      0.70477      0.78237      0.22805     -0.574 
O2       O      0.70477      0.28237      0.72805     -0.574 
O2       O      0.20477      0.78237      0.72805     -0.574 
O3       O      0.0195603    0.42299      0.0743904   -0.438 
O3       O      0.51956      0.92299      0.0743904   -0.438 
O3       O      0.51956      0.42299      0.57439     -0.438 
O3       O      0.0195603    0.92299      0.57439     -0.438 
O2       O      0.00307981   0.41224      0.0599703   -0.574 
O2       O      0.50308      0.912239     0.0599703   -0.574 
O2       O      0.50308      0.41224      0.55997     -0.574 
O2       O      0.00307981   0.912239     0.55997     -0.574 
O2       O      0.10124      0.412419     0.0272097   -0.574 
O2       O      0.60124      0.912419     0.0272097   -0.574 
O2       O      0.60124      0.412419     0.52721     -0.574 
O2       O      0.10124      0.912419     0.52721     -0.574 
O2       O      0.11549      0.392259     0.0225298   -0.574 
O2       O      0.61549      0.892259     0.0225298   -0.574 
O2       O      0.61549      0.392259     0.52253     -0.574 
O2       O      0.11549      0.892259     0.52253     -0.574 
O2       O      0.12448      0.39875      0.10189     -0.574 
O2       O      0.62448      0.89875      0.10189     -0.574 
O2       O      0.62448      0.39875      0.60189     -0.574 
O2       O      0.12448      0.89875      0.60189     -0.574 
O2       O      0.13369      0.37708      0.0930696   -0.574 
O2       O      0.63369      0.87708      0.0930696   -0.574 
O2       O      0.63369      0.37708      0.59307     -0.574 
O2       O      0.13369      0.87708      0.59307     -0.574 
O3       O      0.0780497    0.30638      0.0591095   -0.438 
O3       O      0.57805      0.80638      0.0591095   -0.438 
O3       O      0.57805      0.30638      0.559109    -0.438 
O3       O      0.0780497    0.80638      0.559109    -0.438 
O2       O      0.120559     0.35161      0.10378     -0.574 
O2       O      0.620559     0.85161      0.10378     -0.574 
O2       O      0.620559     0.35161      0.60378     -0.574 
O2       O      0.120559     0.85161      0.60378     -0.574 
O2       O      0.0462096    0.31477      0.0237597   -0.574 
O2       O      0.54621      0.81477      0.0237597   -0.574 
O2       O      0.54621      0.31477      0.52376     -0.574 
O2       O      0.0462096    0.81477      0.52376     -0.574 
O3       O      0.0694505    0.31073      0.0308803   -0.438 
O3       O      0.569449     0.81073      0.0308803   -0.438 
O3       O      0.569449     0.31073      0.53088     -0.438 
O3       O      0.0694505    0.81073      0.53088     -0.438 
O3       O      0.57278      0.38308      0.49336     -0.438 
O3       O      0.0727802    0.88308      0.49336     -0.438 
O3       O      0.0727802    0.38308      0.99336     -0.438 
O3       O      0.57278      0.88308      0.99336     -0.438 
O2       O      0.0952503    0.37353      0.00338026  -0.574 
O2       O      0.59525      0.87353      0.00338026  -0.574 
O2       O      0.59525      0.37353      0.50338     -0.574 
O2       O      0.0952503    0.87353      0.50338     -0.574 
C3       C      0.0693403    0.1205       0.10929     -0.058 
C3       C      0.56934      0.6205       0.10929     -0.058 
C3       C      0.56934      0.1205       0.60929     -0.058 
C3       C      0.0693403    0.6205       0.60929     -0.058 
C3       C      0.24493      0.16837      0.188       -0.058 
C3       C      0.74493      0.66837      0.188       -0.058 
C3       C      0.74493      0.16837      0.688       -0.058 
C3       C      0.24493      0.66837      0.688       -0.058 
C3       C      0.22948      0.164941     0.1847      -0.058 
C3       C      0.72948      0.664939     0.1847      -0.058 
C3       C      0.72948      0.164941     0.6847      -0.058 
C3       C      0.22948      0.664939     0.6847      -0.058 
C3       C      0.20309      0.26377      0.25252     -0.058 
C3       C      0.70309      0.76377      0.25252     -0.058 
C3       C      0.70309      0.26377      0.75252     -0.058 
C3       C      0.20309      0.76377      0.75252     -0.058 
C1       C      0.19264      0.274        0.22967      0.496 
C1       C      0.69264      0.774        0.22967      0.496 
C1       C      0.69264      0.274        0.72967      0.496 
C1       C      0.19264      0.774        0.72967      0.496 
C2       C      0.19264      0.26245      0.2406      -0.07  
C2       C      0.69264      0.76245      0.2406      -0.07  
C2       C      0.69264      0.26245      0.7406      -0.07  
C2       C      0.19264      0.76245      0.7406      -0.07  
C3       C      0.17859      0.25494      0.24368     -0.058 
C3       C      0.67859      0.75494      0.24368     -0.058 
C3       C      0.67859      0.25494      0.74368     -0.058 
C3       C      0.17859      0.75494      0.74368     -0.058 
C3       C      0.0407701    0.428159     0.0523096   -0.058 
C3       C      0.54077      0.928159     0.0523096   -0.058 
C3       C      0.54077      0.428159     0.55231     -0.058 
C3       C      0.0407701    0.928159     0.55231     -0.058 
C1       C      0.0154396    0.41978      0.0613003    0.496 
C1       C      0.51544      0.91978      0.0613003    0.496 
C1       C      0.51544      0.41978      0.5613       0.496 
C1       C      0.0154396    0.91978      0.5613       0.496 
C2       C      0.02741      0.41889      0.0501795   -0.07  
C2       C      0.52741      0.91889      0.0501795   -0.07  
C2       C      0.52741      0.41889      0.550179    -0.07  
C2       C      0.02741      0.91889      0.550179    -0.07  
C3       C      0.02803      0.4071       0.0393298   -0.058 
C3       C      0.52803      0.9071       0.0393298   -0.058 
C3       C      0.52803      0.4071       0.53933     -0.058 
C3       C      0.02803      0.9071       0.53933     -0.058 
C3       C      0.10653      0.40796      0.0581598   -0.058 
C3       C      0.60653      0.90796      0.0581598   -0.058 
C3       C      0.60653      0.40796      0.55816     -0.058 
C3       C      0.10653      0.90796      0.55816     -0.058 
C1       C      0.11156      0.40329      0.0309197    0.496 
C1       C      0.61156      0.90329      0.0309197    0.496 
C1       C      0.61156      0.40329      0.53092      0.496 
C1       C      0.11156      0.90329      0.53092      0.496 
C2       C      0.11496      0.40109      0.0459598   -0.07  
C2       C      0.61496      0.90109      0.0459598   -0.07  
C2       C      0.61496      0.40109      0.54596     -0.07  
C2       C      0.11496      0.90109      0.54596     -0.07  
C3       C      0.11117      0.40528      0.0730997   -0.058 
C3       C      0.61117      0.90528      0.0730997   -0.058 
C3       C      0.61117      0.40528      0.5731      -0.058 
C3       C      0.11117      0.90528      0.5731      -0.058 
C1       C      0.12691      0.389699     0.0907099    0.496 
C1       C      0.62691      0.889699     0.0907099    0.496 
C1       C      0.62691      0.389699     0.59071      0.496 
C1       C      0.12691      0.889699     0.59071      0.496 
C2       C      0.1205       0.39231      0.0758904   -0.07  
C2       C      0.6205       0.89231      0.0758904   -0.07  
C2       C      0.6205       0.39231      0.57589     -0.07  
C2       C      0.1205       0.89231      0.57589     -0.07  
C3       C      0.12254      0.38776      0.0483599   -0.058 
C3       C      0.62254      0.88776      0.0483599   -0.058 
C3       C      0.62254      0.38776      0.54836     -0.058 
C3       C      0.12254      0.88776      0.54836     -0.058 
C3       C      0.12689      0.38418      0.0635002   -0.058 
C3       C      0.62689      0.88418      0.0635002   -0.058 
C3       C      0.62689      0.38418      0.5635      -0.058 
C3       C      0.12689      0.88418      0.5635      -0.058 
C3       C      0.0952897    0.32049      0.0767804   -0.058 
C3       C      0.59529      0.82049      0.0767804   -0.058 
C3       C      0.59529      0.32049      0.57678     -0.058 
C3       C      0.0952897    0.82049      0.57678     -0.058 
C3       C      0.10355      0.33199      0.0848496   -0.058 
C3       C      0.60355      0.83199      0.0848496   -0.058 
C3       C      0.60355      0.33199      0.58485     -0.058 
C3       C      0.10355      0.83199      0.58485     -0.058 
C3       C      0.05429      0.34294      0.0135503   -0.058 
C3       C      0.55429      0.84294      0.0135503   -0.058 
C3       C      0.55429      0.34294      0.51355     -0.058 
C3       C      0.05429      0.84294      0.51355     -0.058 
C1       C      0.0598398    0.318699     0.0246396    0.496 
C1       C      0.55984      0.818699     0.0246396    0.496 
C1       C      0.55984      0.318699     0.52464      0.496 
C1       C      0.0598398    0.818699     0.52464      0.496 
C2       C      0.0648201    0.33211      0.0180704   -0.07  
C2       C      0.56482      0.83211      0.0180704   -0.07  
C2       C      0.56482      0.33211      0.51807     -0.07  
C2       C      0.0648201    0.83211      0.51807     -0.07  
C3       C      0.05924      0.35578      0.00616976  -0.058 
C3       C      0.55924      0.85578      0.00616976  -0.058 
C3       C      0.55924      0.35578      0.50617     -0.058 
C3       C      0.05924      0.85578      0.50617     -0.058 
C1       C      0.0808201    0.37253      0.000949712  0.496 
C1       C      0.58082      0.87253      0.000949712  0.496 
C1       C      0.58082      0.37253      0.50095      0.496 
C1       C      0.0808201    0.87253      0.50095      0.496 
C2       C      0.0747797    0.35825      0.00489034  -0.07  
C2       C      0.57478      0.85825      0.00489034  -0.07  
C2       C      0.57478      0.35825      0.50489     -0.07  
C2       C      0.0747797    0.85825      0.50489     -0.07  
C3       C      0.0803205    0.33516      0.0184598   -0.058 
C3       C      0.58032      0.83516      0.0184598   -0.058 
C3       C      0.58032      0.33516      0.51846     -0.058 
C3       C      0.0803205    0.83516      0.51846     -0.058 
C3       C      0.0854201    0.34842      0.0117105   -0.058 
C3       C      0.58542      0.84842      0.0117105   -0.058 
C3       C      0.58542      0.34842      0.51171     -0.058 
C3       C      0.0854201    0.84842      0.51171     -0.058 
H1       H      0.250328     0.1633       0.197495     0.108 
H1       H      0.750327     0.6633       0.197495     0.108 
H1       H      0.750327     0.1633       0.697495     0.108 
H1       H      0.250328     0.6633       0.697495     0.108 
H1       H      0.223627     0.156687     0.191211     0.108 
H1       H      0.723627     0.656687     0.191211     0.108 
H1       H      0.723627     0.156687     0.691211     0.108 
H1       H      0.223627     0.656687     0.691211     0.108 
H1       H      0.0982682    0.317782     0.0654413    0.108 
H1       H      0.598268     0.817782     0.0654413    0.108 
H1       H      0.598268     0.317782     0.565441     0.108 
H1       H      0.0982682    0.817782     0.565441     0.108 
H1       H      0.114129     0.335875     0.0806355    0.108 
H1       H      0.614129     0.835875     0.0806355    0.108 
H1       H      0.614129     0.335875     0.580636     0.108 
H1       H      0.114129     0.835875     0.580636     0.108 
H1       H      0.071099     0.118168     0.0976246    0.108 
H1       H      0.571099     0.618168     0.0976246    0.108 
H1       H      0.571099     0.118168     0.597625     0.108 
H1       H      0.071099     0.618168     0.597625     0.108 
H1       H      0.210699     0.273085     0.252846     0.108 
H1       H      0.710699     0.773084     0.252846     0.108 
H1       H      0.710699     0.273085     0.752846     0.108 
H1       H      0.210699     0.773084     0.752846     0.108 
H1       H      0.0878372    0.327439     0.0238126    0.108 
H1       H      0.587837     0.827439     0.0238126    0.108 
H1       H      0.587837     0.327439     0.523813     0.108 
H1       H      0.0878372    0.827439     0.523813     0.108 
H1       H      0.0971745    0.35105      0.011724     0.108 
H1       H      0.597174     0.85105      0.011724     0.108 
H1       H      0.597174     0.35105      0.511724     0.108 
H1       H      0.0971745    0.85105      0.511724     0.108 
H1       H      0.0425863    0.34126      0.0157974    0.108 
H1       H      0.542586     0.84126      0.0157974    0.108 
H1       H      0.542586     0.34126      0.515797     0.108 
H1       H      0.0425863    0.84126      0.515797     0.108 
H1       H      0.0512586    0.363551     0.00159786   0.108 
H1       H      0.551259     0.863551     0.00159786   0.108 
H1       H      0.551259     0.363551     0.501598     0.108 
H1       H      0.0512586    0.863551     0.501598     0.108 
H1       H      0.0419471    0.43482      0.0622613    0.108 
H1       H      0.541947     0.93482      0.0622613    0.108 
H1       H      0.541947     0.43482      0.562261     0.108 
H1       H      0.0419471    0.93482      0.562261     0.108 
H1       H      0.0199575    0.398184     0.0396663    0.108 
H1       H      0.519957     0.898184     0.0396663    0.108 
H1       H      0.519957     0.398184     0.539666     0.108 
H1       H      0.0199575    0.898184     0.539666     0.108 
H1       H      0.124991     0.380481     0.039098     0.108 
H1       H      0.624991     0.880481     0.039098     0.108 
H1       H      0.624991     0.380481     0.539098     0.108 
H1       H      0.124991     0.880481     0.539098     0.108 
H1       H      0.134905     0.375439     0.0655324    0.108 
H1       H      0.634905     0.875439     0.0655324    0.108 
H1       H      0.634905     0.375439     0.565532     0.108 
H1       H      0.134905     0.875439     0.565532     0.108 
H1       H      0.0970001    0.414902     0.0557292    0.108 
H1       H      0.597        0.914902     0.0557292    0.108 
H1       H      0.597        0.414902     0.555729     0.108 
H1       H      0.0970001    0.914902     0.555729     0.108 
H1       H      0.107759     0.412752     0.0818913    0.108 
H1       H      0.607759     0.912752     0.0818913    0.108 
H1       H      0.607759     0.412752     0.581891     0.108 
H1       H      0.107759     0.912752     0.581891     0.108 
H1       H      0.168684     0.257953     0.237544     0.108 
H1       H      0.668684     0.757953     0.237544     0.108 
H1       H      0.668684     0.257953     0.737544     0.108 
H1       H      0.168684     0.757953     0.737544     0.108 
Cr1      Cr     0.48709      0.34473      0.17799      1.619 
Cr1      Cr     0.98709      0.84473      0.17799      1.619 
Cr1      Cr     0.98709      0.34473      0.67799      1.619 
Cr1      Cr     0.48709      0.84473      0.67799      1.619 
Cr2      Cr     0.29154      0.0728004    0.0424603    1.35  
Cr2      Cr     0.79154      0.5728       0.0424603    1.35  
Cr2      Cr     0.79154      0.0728004    0.54246      1.35  
Cr2      Cr     0.29154      0.5728       0.54246      1.35  
O3       O      0.0696396    0.10869      0.15982     -0.438 
O3       O      0.56964      0.60869      0.15982     -0.438 
O3       O      0.56964      0.10869      0.65982     -0.438 
O3       O      0.0696396    0.60869      0.65982     -0.438 
O3       O      0.27354      0.0738998    0.0558699   -0.438 
O3       O      0.77354      0.5739       0.0558699   -0.438 
O3       O      0.77354      0.0738998    0.55587     -0.438 
O3       O      0.27354      0.5739       0.55587     -0.438 
O3       O      0.1993       0.08886      0.0726305   -0.438 
O3       O      0.6993       0.58886      0.0726305   -0.438 
O3       O      0.6993       0.08886      0.572629    -0.438 
O3       O      0.1993       0.58886      0.572629    -0.438 
O2       O      0.67932      0.471219     0.0241603   -0.574 
O2       O      0.17932      0.971219     0.0241603   -0.574 
O2       O      0.17932      0.471219     0.52416     -0.574 
O2       O      0.67932      0.971219     0.52416     -0.574 
O2       O      0.70477      0.46763      0.0219503   -0.574 
O2       O      0.20477      0.96763      0.0219503   -0.574 
O2       O      0.20477      0.46763      0.52195     -0.574 
O2       O      0.70477      0.96763      0.52195     -0.574 
O3       O      0.51956      0.327009     0.17561     -0.438 
O3       O      0.0195603    0.827009     0.17561     -0.438 
O3       O      0.0195603    0.327009     0.67561     -0.438 
O3       O      0.51956      0.827009     0.67561     -0.438 
O2       O      0.50308      0.33776      0.19003     -0.574 
O2       O      0.00307981   0.83776      0.19003     -0.574 
O2       O      0.00307981   0.33776      0.69003     -0.574 
O2       O      0.50308      0.83776      0.69003     -0.574 
O2       O      0.60124      0.33758      0.22279     -0.574 
O2       O      0.10124      0.83758      0.22279     -0.574 
O2       O      0.10124      0.33758      0.72279     -0.574 
O2       O      0.60124      0.83758      0.72279     -0.574 
O2       O      0.61549      0.35774      0.22747     -0.574 
O2       O      0.11549      0.85774      0.22747     -0.574 
O2       O      0.11549      0.35774      0.72747     -0.574 
O2       O      0.61549      0.85774      0.72747     -0.574 
O2       O      0.62448      0.35125      0.14811     -0.574 
O2       O      0.12448      0.85125      0.14811     -0.574 
O2       O      0.12448      0.35125      0.64811     -0.574 
O2       O      0.62448      0.85125      0.64811     -0.574 
O3       O      0.63369      0.37292      0.15693     -0.438 
O3       O      0.13369      0.87292      0.15693     -0.438 
O3       O      0.13369      0.37292      0.65693     -0.438 
O3       O      0.63369      0.87292      0.65693     -0.438 
O2       O      0.57805      0.44362      0.19089     -0.574 
O2       O      0.0780497    0.94362      0.19089     -0.574 
O2       O      0.0780497    0.44362      0.69089     -0.574 
O2       O      0.57805      0.94362      0.69089     -0.574 
O3       O      0.620559     0.39839      0.14622     -0.438 
O3       O      0.120559     0.89839      0.14622     -0.438 
O3       O      0.120559     0.39839      0.64622     -0.438 
O3       O      0.620559     0.89839      0.64622     -0.438 
O2       O      0.54621      0.435231     0.22624     -0.574 
O2       O      0.0462096    0.935229     0.22624     -0.574 
O2       O      0.0462096    0.435231     0.72624     -0.574 
O2       O      0.54621      0.935229     0.72624     -0.574 
O2       O      0.569449     0.43927      0.21912     -0.574 
O2       O      0.0694505    0.93927      0.21912     -0.574 
O2       O      0.0694505    0.43927      0.71912     -0.574 
O2       O      0.569449     0.93927      0.71912     -0.574 
O3       O      0.57278      0.36692      0.25664     -0.438 
O3       O      0.0727802    0.86692      0.25664     -0.438 
O3       O      0.0727802    0.36692      0.75664     -0.438 
O3       O      0.57278      0.86692      0.75664     -0.438 
O2       O      0.59525      0.37647      0.24662     -0.574 
O2       O      0.0952503    0.87647      0.24662     -0.574 
O2       O      0.0952503    0.37647      0.74662     -0.574 
O2       O      0.59525      0.87647      0.74662     -0.574 
F1       F      0.28913      0.0941498    0.03873     -0.547 
F1       F      0.78913      0.59415      0.03873     -0.547 
F1       F      0.78913      0.0941498    0.53873     -0.547 
F1       F      0.28913      0.59415      0.53873     -0.547 
C3       C      0.0693403    0.1295       0.14071     -0.058 
C3       C      0.56934      0.6295       0.14071     -0.058 
C3       C      0.56934      0.1295       0.64071     -0.058 
C3       C      0.0693403    0.6295       0.64071     -0.058 
C3       C      0.24493      0.0816303    0.0620002   -0.058 
C3       C      0.74493      0.58163      0.0620002   -0.058 
C3       C      0.74493      0.0816303    0.562       -0.058 
C3       C      0.24493      0.58163      0.562       -0.058 
C3       C      0.22948      0.08506      0.0652995   -0.058 
C3       C      0.72948      0.58506      0.0652995   -0.058 
C3       C      0.72948      0.08506      0.565299    -0.058 
C3       C      0.22948      0.58506      0.565299    -0.058 
C3       C      0.20309      0.48623      0.497479    -0.058 
C3       C      0.70309      0.98623      0.497479    -0.058 
C3       C      0.70309      0.48623      0.997479    -0.058 
C3       C      0.20309      0.98623      0.997479    -0.058 
C1       C      0.69264      0.476        0.0203299    0.496 
C1       C      0.19264      0.976        0.0203299    0.496 
C1       C      0.19264      0.476        0.52033      0.496 
C1       C      0.69264      0.976        0.52033      0.496 
C2       C      0.69264      0.48755      0.00940035  -0.07  
C2       C      0.19264      0.98755      0.00940035  -0.07  
C2       C      0.19264      0.48755      0.5094      -0.07  
C2       C      0.69264      0.98755      0.5094      -0.07  
C3       C      0.67859      0.49506      0.00632054  -0.058 
C3       C      0.17859      0.99506      0.00632054  -0.058 
C3       C      0.17859      0.49506      0.506319    -0.058 
C3       C      0.67859      0.99506      0.506319    -0.058 
C3       C      0.54077      0.32184      0.19769     -0.058 
C3       C      0.0407701    0.82184      0.19769     -0.058 
C3       C      0.0407701    0.32184      0.69769     -0.058 
C3       C      0.54077      0.82184      0.69769     -0.058 
C1       C      0.51544      0.33022      0.1887       0.496 
C1       C      0.0154396    0.83022      0.1887       0.496 
C1       C      0.0154396    0.33022      0.6887       0.496 
C1       C      0.51544      0.83022      0.6887       0.496 
C2       C      0.52741      0.33111      0.19982     -0.07  
C2       C      0.02741      0.83111      0.19982     -0.07  
C2       C      0.02741      0.33111      0.69982     -0.07  
C2       C      0.52741      0.83111      0.69982     -0.07  
C3       C      0.52803      0.3429       0.21067     -0.058 
C3       C      0.02803      0.8429       0.21067     -0.058 
C3       C      0.02803      0.3429       0.71067     -0.058 
C3       C      0.52803      0.8429       0.71067     -0.058 
C3       C      0.60653      0.342039     0.19184     -0.058 
C3       C      0.10653      0.842039     0.19184     -0.058 
C3       C      0.10653      0.342039     0.69184     -0.058 
C3       C      0.60653      0.842039     0.69184     -0.058 
C1       C      0.61156      0.34671      0.21908      0.496 
C1       C      0.11156      0.84671      0.21908      0.496 
C1       C      0.11156      0.34671      0.71908      0.496 
C1       C      0.61156      0.84671      0.71908      0.496 
C2       C      0.61496      0.34891      0.20404     -0.07  
C2       C      0.11496      0.84891      0.20404     -0.07  
C2       C      0.11496      0.34891      0.70404     -0.07  
C2       C      0.61496      0.84891      0.70404     -0.07  
C3       C      0.61117      0.34472      0.1769      -0.058 
C3       C      0.11117      0.84472      0.1769      -0.058 
C3       C      0.11117      0.34472      0.6769      -0.058 
C3       C      0.61117      0.84472      0.6769      -0.058 
C1       C      0.62691      0.3603       0.15929      0.496 
C1       C      0.12691      0.8603       0.15929      0.496 
C1       C      0.12691      0.3603       0.65929      0.496 
C1       C      0.62691      0.8603       0.65929      0.496 
C2       C      0.6205       0.357689     0.17411     -0.07  
C2       C      0.1205       0.857689     0.17411     -0.07  
C2       C      0.1205       0.357689     0.67411     -0.07  
C2       C      0.6205       0.857689     0.67411     -0.07  
C3       C      0.62254      0.36224      0.201639    -0.058 
C3       C      0.12254      0.86224      0.201639    -0.058 
C3       C      0.12254      0.36224      0.701639    -0.058 
C3       C      0.62254      0.86224      0.701639    -0.058 
C3       C      0.62689      0.36582      0.1865      -0.058 
C3       C      0.12689      0.865819     0.1865      -0.058 
C3       C      0.12689      0.36582      0.6865      -0.058 
C3       C      0.62689      0.865819     0.6865      -0.058 
C3       C      0.59529      0.42951      0.17322     -0.058 
C3       C      0.0952897    0.92951      0.17322     -0.058 
C3       C      0.0952897    0.42951      0.67322     -0.058 
C3       C      0.59529      0.92951      0.67322     -0.058 
C3       C      0.60355      0.41801      0.16515     -0.058 
C3       C      0.10355      0.91801      0.16515     -0.058 
C3       C      0.10355      0.41801      0.66515     -0.058 
C3       C      0.60355      0.91801      0.66515     -0.058 
C3       C      0.55429      0.40706      0.23645     -0.058 
C3       C      0.05429      0.90706      0.23645     -0.058 
C3       C      0.05429      0.40706      0.73645     -0.058 
C3       C      0.55429      0.90706      0.73645     -0.058 
C1       C      0.55984      0.4313       0.22536      0.496 
C1       C      0.0598398    0.9313       0.22536      0.496 
C1       C      0.0598398    0.4313       0.72536      0.496 
C1       C      0.55984      0.9313       0.72536      0.496 
C2       C      0.56482      0.41789      0.23193     -0.07  
C2       C      0.0648201    0.91789      0.23193     -0.07  
C2       C      0.0648201    0.41789      0.73193     -0.07  
C2       C      0.56482      0.91789      0.73193     -0.07  
C3       C      0.55924      0.39422      0.24383     -0.058 
C3       C      0.05924      0.89422      0.24383     -0.058 
C3       C      0.05924      0.39422      0.74383     -0.058 
C3       C      0.55924      0.89422      0.74383     -0.058 
C1       C      0.58082      0.37747      0.24905      0.496 
C1       C      0.0808201    0.87747      0.24905      0.496 
C1       C      0.0808201    0.37747      0.74905      0.496 
C1       C      0.58082      0.87747      0.74905      0.496 
C2       C      0.57478      0.39175      0.24511     -0.07  
C2       C      0.0747797    0.89175      0.24511     -0.07  
C2       C      0.0747797    0.39175      0.74511     -0.07  
C2       C      0.57478      0.89175      0.74511     -0.07  
C3       C      0.58032      0.41484      0.23154     -0.058 
C3       C      0.0803205    0.91484      0.23154     -0.058 
C3       C      0.0803205    0.41484      0.73154     -0.058 
C3       C      0.58032      0.91484      0.73154     -0.058 
C3       C      0.58542      0.40158      0.23829     -0.058 
C3       C      0.0854201    0.90158      0.23829     -0.058 
C3       C      0.0854201    0.40158      0.73829     -0.058 
C3       C      0.58542      0.90158      0.73829     -0.058 
H1       H      0.250328     0.0867006    0.0525054    0.108 
H1       H      0.750327     0.586701     0.0525054    0.108 
H1       H      0.750327     0.0867006    0.552505     0.108 
H1       H      0.250328     0.586701     0.552505     0.108 
H1       H      0.223627     0.0933138    0.0587888    0.108 
H1       H      0.723627     0.593314     0.0587888    0.108 
H1       H      0.723627     0.0933138    0.558789     0.108 
H1       H      0.223627     0.593314     0.558789     0.108 
H1       H      0.598268     0.432217     0.184559     0.108 
H1       H      0.0982682    0.932217     0.184559     0.108 
H1       H      0.0982682    0.432217     0.684559     0.108 
H1       H      0.598268     0.932217     0.684559     0.108 
H1       H      0.614129     0.414125     0.169365     0.108 
H1       H      0.114129     0.914125     0.169365     0.108 
H1       H      0.114129     0.414125     0.669365     0.108 
H1       H      0.614129     0.914125     0.669365     0.108 
H1       H      0.071099     0.131832     0.152376     0.108 
H1       H      0.571099     0.631832     0.152376     0.108 
H1       H      0.571099     0.131832     0.652376     0.108 
H1       H      0.071099     0.631832     0.652376     0.108 
H1       H      0.210699     0.476915     0.497154     0.108 
H1       H      0.710699     0.976915     0.497154     0.108 
H1       H      0.710699     0.476915     0.997154     0.108 
H1       H      0.210699     0.976915     0.997154     0.108 
H1       H      0.587837     0.42256      0.226188     0.108 
H1       H      0.0878372    0.92256      0.226188     0.108 
H1       H      0.0878372    0.42256      0.726188     0.108 
H1       H      0.587837     0.92256      0.726188     0.108 
H1       H      0.597174     0.39895      0.238275     0.108 
H1       H      0.0971745    0.89895      0.238275     0.108 
H1       H      0.0971745    0.39895      0.738275     0.108 
H1       H      0.597174     0.89895      0.738275     0.108 
H1       H      0.542586     0.40874      0.234202     0.108 
H1       H      0.0425863    0.90874      0.234202     0.108 
H1       H      0.0425863    0.40874      0.734202     0.108 
H1       H      0.542586     0.90874      0.734202     0.108 
H1       H      0.551259     0.386449     0.248402     0.108 
H1       H      0.0512586    0.886449     0.248402     0.108 
H1       H      0.0512586    0.386449     0.748402     0.108 
H1       H      0.551259     0.886449     0.748402     0.108 
H1       H      0.541947     0.31518      0.187739     0.108 
H1       H      0.0419471    0.81518      0.187739     0.108 
H1       H      0.0419471    0.31518      0.687738     0.108 
H1       H      0.541947     0.81518      0.687738     0.108 
H1       H      0.519957     0.351816     0.210333     0.108 
H1       H      0.0199575    0.851816     0.210333     0.108 
H1       H      0.0199575    0.351816     0.710333     0.108 
H1       H      0.519957     0.851816     0.710333     0.108 
H1       H      0.624991     0.369518     0.210901     0.108 
H1       H      0.124991     0.869518     0.210901     0.108 
H1       H      0.124991     0.369518     0.710901     0.108 
H1       H      0.624991     0.869518     0.710901     0.108 
H1       H      0.634905     0.37456      0.184467     0.108 
H1       H      0.134905     0.87456      0.184467     0.108 
H1       H      0.134905     0.37456      0.684467     0.108 
H1       H      0.634905     0.87456      0.684467     0.108 
H1       H      0.597        0.335099     0.194271     0.108 
H1       H      0.0970001    0.835099     0.194271     0.108 
H1       H      0.0970001    0.335099     0.69427      0.108 
H1       H      0.597        0.835099     0.69427      0.108 
H1       H      0.607759     0.337247     0.168108     0.108 
H1       H      0.107759     0.837247     0.168108     0.108 
H1       H      0.107759     0.337247     0.668108     0.108 
H1       H      0.607759     0.837247     0.668108     0.108 
H1       H      0.668684     0.492047     0.0124565    0.108 
H1       H      0.168684     0.992047     0.0124565    0.108 
H1       H      0.168684     0.492047     0.512457     0.108 
H1       H      0.668684     0.992047     0.512457     0.108 
Cr2      Cr     0.762909     0.34473      0.0720105    1.35  
Cr2      Cr     0.262909     0.84473      0.0720105    1.35  
Cr2      Cr     0.262909     0.34473      0.57201      1.35  
Cr2      Cr     0.762909     0.84473      0.57201      1.35  
Cr1      Cr     0.95846      0.0728004    0.20754      1.619 
Cr1      Cr     0.45846      0.5728       0.20754      1.619 
Cr1      Cr     0.45846      0.0728004    0.70754      1.619 
Cr1      Cr     0.95846      0.5728       0.70754      1.619 
O3       O      0.18036      0.10869      0.0901799   -0.438 
O3       O      0.68036      0.60869      0.0901799   -0.438 
O3       O      0.68036      0.10869      0.59018     -0.438 
O3       O      0.18036      0.60869      0.59018     -0.438 
O2       O      0.97646      0.0738998    0.19413     -0.574 
O2       O      0.47646      0.5739       0.19413     -0.574 
O2       O      0.47646      0.0738998    0.69413     -0.574 
O2       O      0.97646      0.5739       0.69413     -0.574 
O3       O      0.0507005    0.08886      0.17737     -0.438 
O3       O      0.5507       0.58886      0.17737     -0.438 
O3       O      0.5507       0.08886      0.67737     -0.438 
O3       O      0.0507005    0.58886      0.67737     -0.438 
O2       O      0.57068      0.471219     0.22584     -0.574 
O2       O      0.0706804    0.971219     0.22584     -0.574 
O2       O      0.0706804    0.471219     0.72584     -0.574 
O2       O      0.57068      0.971219     0.72584     -0.574 
O2       O      0.545229     0.46763      0.22805     -0.574 
O2       O      0.0452295    0.96763      0.22805     -0.574 
O2       O      0.0452295    0.46763      0.72805     -0.574 
O2       O      0.545229     0.96763      0.72805     -0.574 
O2       O      0.73044      0.327009     0.0743904   -0.574 
O2       O      0.23044      0.827009     0.0743904   -0.574 
O2       O      0.23044      0.327009     0.57439     -0.574 
O2       O      0.73044      0.827009     0.57439     -0.574 
O3       O      0.74692      0.33776      0.0599703   -0.438 
O3       O      0.24692      0.83776      0.0599703   -0.438 
O3       O      0.24692      0.33776      0.55997     -0.438 
O3       O      0.74692      0.83776      0.55997     -0.438 
O2       O      0.648759     0.33758      0.0272097   -0.574 
O2       O      0.148759     0.83758      0.0272097   -0.574 
O2       O      0.148759     0.33758      0.52721     -0.574 
O2       O      0.648759     0.83758      0.52721     -0.574 
O2       O      0.63451      0.35774      0.0225298   -0.574 
O2       O      0.13451      0.85774      0.0225298   -0.574 
O2       O      0.13451      0.35774      0.52253     -0.574 
O2       O      0.63451      0.85774      0.52253     -0.574 
O2       O      0.62552      0.35125      0.10189     -0.574 
O2       O      0.12552      0.85125      0.10189     -0.574 
O2       O      0.12552      0.35125      0.60189     -0.574 
O2       O      0.62552      0.85125      0.60189     -0.574 
O2       O      0.616309     0.37292      0.0930696   -0.574 
O2       O      0.116311     0.87292      0.0930696   -0.574 
O2       O      0.116311     0.37292      0.59307     -0.574 
O2       O      0.616309     0.87292      0.59307     -0.574 
O2       O      0.67195      0.44362      0.0591095   -0.574 
O2       O      0.17195      0.94362      0.0591095   -0.574 
O2       O      0.17195      0.44362      0.559109    -0.574 
O2       O      0.67195      0.94362      0.559109    -0.574 
O2       O      0.62944      0.39839      0.10378     -0.574 
O2       O      0.12944      0.89839      0.10378     -0.574 
O2       O      0.12944      0.39839      0.60378     -0.574 
O2       O      0.62944      0.89839      0.60378     -0.574 
O2       O      0.70379      0.435231     0.0237597   -0.574 
O2       O      0.20379      0.935229     0.0237597   -0.574 
O2       O      0.20379      0.435231     0.52376     -0.574 
O2       O      0.70379      0.935229     0.52376     -0.574 
O2       O      0.68055      0.43927      0.0308803   -0.574 
O2       O      0.18055      0.93927      0.0308803   -0.574 
O2       O      0.18055      0.43927      0.53088     -0.574 
O2       O      0.68055      0.93927      0.53088     -0.574 
O3       O      0.17722      0.36692      0.49336     -0.438 
O3       O      0.67722      0.86692      0.49336     -0.438 
O3       O      0.67722      0.36692      0.99336     -0.438 
O3       O      0.17722      0.86692      0.99336     -0.438 
O2       O      0.65475      0.37647      0.00338026  -0.574 
O2       O      0.15475      0.87647      0.00338026  -0.574 
O2       O      0.15475      0.37647      0.50338     -0.574 
O2       O      0.65475      0.87647      0.50338     -0.574 
F1       F      0.77526      0.3442       0.0524997   -0.547 
F1       F      0.27526      0.8442       0.0524997   -0.547 
F1       F      0.27526      0.3442       0.5525      -0.547 
F1       F      0.77526      0.8442       0.5525      -0.547 
C3       C      0.18066      0.1295       0.10929     -0.058 
C3       C      0.68066      0.6295       0.10929     -0.058 
C3       C      0.68066      0.1295       0.60929     -0.058 
C3       C      0.18066      0.6295       0.60929     -0.058 
C3       C      0.00507038   0.0816303    0.188       -0.058 
C3       C      0.50507      0.58163      0.188       -0.058 
C3       C      0.50507      0.0816303    0.688       -0.058 
C3       C      0.00507038   0.58163      0.688       -0.058 
C3       C      0.0205201    0.08506      0.1847      -0.058 
C3       C      0.52052      0.58506      0.1847      -0.058 
C3       C      0.52052      0.08506      0.6847      -0.058 
C3       C      0.0205201    0.58506      0.6847      -0.058 
C3       C      0.546909     0.48623      0.25252     -0.058 
C3       C      0.0469095    0.98623      0.25252     -0.058 
C3       C      0.0469095    0.48623      0.75252     -0.058 
C3       C      0.546909     0.98623      0.75252     -0.058 
C1       C      0.55736      0.476        0.22967      0.496 
C1       C      0.0573597    0.976        0.22967      0.496 
C1       C      0.0573597    0.476        0.72967      0.496 
C1       C      0.55736      0.976        0.72967      0.496 
C2       C      0.55736      0.48755      0.2406      -0.07  
C2       C      0.0573597    0.98755      0.2406      -0.07  
C2       C      0.0573597    0.48755      0.7406      -0.07  
C2       C      0.55736      0.98755      0.7406      -0.07  
C3       C      0.57141      0.49506      0.24368     -0.058 
C3       C      0.0714096    0.99506      0.24368     -0.058 
C3       C      0.0714096    0.49506      0.74368     -0.058 
C3       C      0.57141      0.99506      0.74368     -0.058 
C3       C      0.709229     0.32184      0.0523096   -0.058 
C3       C      0.20923      0.82184      0.0523096   -0.058 
C3       C      0.20923      0.32184      0.55231     -0.058 
C3       C      0.709229     0.82184      0.55231     -0.058 
C1       C      0.73456      0.33022      0.0613003    0.496 
C1       C      0.23456      0.83022      0.0613003    0.496 
C1       C      0.23456      0.33022      0.5613       0.496 
C1       C      0.73456      0.83022      0.5613       0.496 
C2       C      0.722589     0.33111      0.0501795   -0.07  
C2       C      0.222589     0.83111      0.0501795   -0.07  
C2       C      0.222589     0.33111      0.550179    -0.07  
C2       C      0.722589     0.83111      0.550179    -0.07  
C3       C      0.721969     0.3429       0.0393298   -0.058 
C3       C      0.221969     0.8429       0.0393298   -0.058 
C3       C      0.221969     0.3429       0.53933     -0.058 
C3       C      0.721969     0.8429       0.53933     -0.058 
C3       C      0.64347      0.342039     0.0581598   -0.058 
C3       C      0.14347      0.842039     0.0581598   -0.058 
C3       C      0.14347      0.342039     0.55816     -0.058 
C3       C      0.64347      0.842039     0.55816     -0.058 
C1       C      0.63844      0.34671      0.0309197    0.496 
C1       C      0.13844      0.84671      0.0309197    0.496 
C1       C      0.13844      0.34671      0.53092      0.496 
C1       C      0.63844      0.84671      0.53092      0.496 
C2       C      0.63504      0.34891      0.0459598   -0.07  
C2       C      0.13504      0.84891      0.0459598   -0.07  
C2       C      0.13504      0.34891      0.54596     -0.07  
C2       C      0.63504      0.84891      0.54596     -0.07  
C3       C      0.63883      0.34472      0.0730997   -0.058 
C3       C      0.13883      0.84472      0.0730997   -0.058 
C3       C      0.13883      0.34472      0.5731      -0.058 
C3       C      0.63883      0.84472      0.5731      -0.058 
C1       C      0.62309      0.3603       0.0907099    0.496 
C1       C      0.12309      0.8603       0.0907099    0.496 
C1       C      0.12309      0.3603       0.59071      0.496 
C1       C      0.62309      0.8603       0.59071      0.496 
C2       C      0.6295       0.357689     0.0758904   -0.07  
C2       C      0.1295       0.857689     0.0758904   -0.07  
C2       C      0.1295       0.357689     0.57589     -0.07  
C2       C      0.6295       0.857689     0.57589     -0.07  
C3       C      0.62746      0.36224      0.0483599   -0.058 
C3       C      0.12746      0.86224      0.0483599   -0.058 
C3       C      0.12746      0.36224      0.54836     -0.058 
C3       C      0.62746      0.86224      0.54836     -0.058 
C3       C      0.62311      0.36582      0.0635002   -0.058 
C3       C      0.12311      0.865819     0.0635002   -0.058 
C3       C      0.12311      0.36582      0.5635      -0.058 
C3       C      0.62311      0.865819     0.5635      -0.058 
C3       C      0.65471      0.42951      0.0767804   -0.058 
C3       C      0.15471      0.92951      0.0767804   -0.058 
C3       C      0.15471      0.42951      0.57678     -0.058 
C3       C      0.65471      0.92951      0.57678     -0.058 
C3       C      0.64645      0.41801      0.0848496   -0.058 
C3       C      0.14645      0.91801      0.0848496   -0.058 
C3       C      0.14645      0.41801      0.58485     -0.058 
C3       C      0.64645      0.91801      0.58485     -0.058 
C3       C      0.695709     0.40706      0.0135503   -0.058 
C3       C      0.195709     0.90706      0.0135503   -0.058 
C3       C      0.195709     0.40706      0.51355     -0.058 
C3       C      0.695709     0.90706      0.51355     -0.058 
C1       C      0.69016      0.4313       0.0246396    0.496 
C1       C      0.19016      0.9313       0.0246396    0.496 
C1       C      0.19016      0.4313       0.52464      0.496 
C1       C      0.69016      0.9313       0.52464      0.496 
C2       C      0.68518      0.41789      0.0180704   -0.07  
C2       C      0.18518      0.91789      0.0180704   -0.07  
C2       C      0.18518      0.41789      0.51807     -0.07  
C2       C      0.68518      0.91789      0.51807     -0.07  
C3       C      0.690759     0.39422      0.00616976  -0.058 
C3       C      0.190759     0.89422      0.00616976  -0.058 
C3       C      0.190759     0.39422      0.50617     -0.058 
C3       C      0.690759     0.89422      0.50617     -0.058 
C1       C      0.669179     0.37747      0.000949712  0.496 
C1       C      0.16918      0.87747      0.000949712  0.496 
C1       C      0.16918      0.37747      0.50095      0.496 
C1       C      0.669179     0.87747      0.50095      0.496 
C2       C      0.67522      0.39175      0.00489034  -0.07  
C2       C      0.17522      0.89175      0.00489034  -0.07  
C2       C      0.17522      0.39175      0.50489     -0.07  
C2       C      0.67522      0.89175      0.50489     -0.07  
C3       C      0.66968      0.41484      0.0184598   -0.058 
C3       C      0.16968      0.91484      0.0184598   -0.058 
C3       C      0.16968      0.41484      0.51846     -0.058 
C3       C      0.66968      0.91484      0.51846     -0.058 
C3       C      0.66458      0.40158      0.0117105   -0.058 
C3       C      0.16458      0.90158      0.0117105   -0.058 
C3       C      0.16458      0.40158      0.51171     -0.058 
C3       C      0.66458      0.90158      0.51171     -0.058 
H1       H      0.999673     0.0867006    0.197495     0.108 
H1       H      0.499673     0.586701     0.197495     0.108 
H1       H      0.499673     0.0867006    0.697495     0.108 
H1       H      0.999673     0.586701     0.697495     0.108 
H1       H      0.0263737    0.0933138    0.191211     0.108 
H1       H      0.526374     0.593314     0.191211     0.108 
H1       H      0.526374     0.0933138    0.691211     0.108 
H1       H      0.0263737    0.593314     0.691211     0.108 
H1       H      0.651732     0.432217     0.0654413    0.108 
H1       H      0.151732     0.932217     0.0654413    0.108 
H1       H      0.151732     0.432217     0.565441     0.108 
H1       H      0.651732     0.932217     0.565441     0.108 
H1       H      0.635871     0.414125     0.0806355    0.108 
H1       H      0.135871     0.914125     0.0806355    0.108 
H1       H      0.135871     0.414125     0.580636     0.108 
H1       H      0.635871     0.914125     0.580636     0.108 
H1       H      0.1789       0.131832     0.0976246    0.108 
H1       H      0.6789       0.631832     0.0976246    0.108 
H1       H      0.6789       0.131832     0.597625     0.108 
H1       H      0.1789       0.631832     0.597625     0.108 
H1       H      0.539301     0.476915     0.252846     0.108 
H1       H      0.0393005    0.976915     0.252846     0.108 
H1       H      0.0393005    0.476915     0.752846     0.108 
H1       H      0.539301     0.976915     0.752846     0.108 
H1       H      0.662162     0.42256      0.0238126    0.108 
H1       H      0.162162     0.92256      0.0238126    0.108 
H1       H      0.162162     0.42256      0.523813     0.108 
H1       H      0.662162     0.92256      0.523813     0.108 
H1       H      0.652826     0.39895      0.011724     0.108 
H1       H      0.152826     0.89895      0.011724     0.108 
H1       H      0.152826     0.39895      0.511724     0.108 
H1       H      0.652826     0.89895      0.511724     0.108 
H1       H      0.707413     0.40874      0.0157974    0.108 
H1       H      0.207413     0.90874      0.0157974    0.108 
H1       H      0.207413     0.40874      0.515797     0.108 
H1       H      0.707413     0.90874      0.515797     0.108 
H1       H      0.698741     0.386449     0.00159786   0.108 
H1       H      0.198741     0.886449     0.00159786   0.108 
H1       H      0.198741     0.386449     0.501598     0.108 
H1       H      0.698741     0.886449     0.501598     0.108 
H1       H      0.708052     0.31518      0.0622613    0.108 
H1       H      0.208052     0.81518      0.0622613    0.108 
H1       H      0.208052     0.31518      0.562261     0.108 
H1       H      0.708052     0.81518      0.562261     0.108 
H1       H      0.730042     0.351816     0.0396663    0.108 
H1       H      0.230042     0.851816     0.0396663    0.108 
H1       H      0.230042     0.351816     0.539666     0.108 
H1       H      0.730042     0.851816     0.539666     0.108 
H1       H      0.625009     0.369518     0.039098     0.108 
H1       H      0.125009     0.869518     0.039098     0.108 
H1       H      0.125009     0.369518     0.539098     0.108 
H1       H      0.625009     0.869518     0.539098     0.108 
H1       H      0.615095     0.37456      0.0655324    0.108 
H1       H      0.115095     0.87456      0.0655324    0.108 
H1       H      0.115095     0.37456      0.565532     0.108 
H1       H      0.615095     0.87456      0.565532     0.108 
H1       H      0.653        0.335099     0.0557292    0.108 
H1       H      0.153        0.835099     0.0557292    0.108 
H1       H      0.153        0.335099     0.555729     0.108 
H1       H      0.653        0.835099     0.555729     0.108 
H1       H      0.642242     0.337247     0.0818913    0.108 
H1       H      0.142242     0.837247     0.0818913    0.108 
H1       H      0.142242     0.337247     0.581891     0.108 
H1       H      0.642242     0.837247     0.581891     0.108 
H1       H      0.581315     0.492047     0.237544     0.108 
H1       H      0.0813152    0.992047     0.237544     0.108 
H1       H      0.0813152    0.492047     0.737544     0.108 
H1       H      0.581315     0.992047     0.737544     0.108 
Cr1      Cr     0.262909     0.40527      0.17799      1.619 
Cr1      Cr     0.762909     0.90527      0.17799      1.619 
Cr1      Cr     0.762909     0.40527      0.67799      1.619 
Cr1      Cr     0.262909     0.90527      0.67799      1.619 
Cr1      Cr     0.95846      0.1772       0.0424603    1.619 
Cr1      Cr     0.45846      0.6772       0.0424603    1.619 
Cr1      Cr     0.45846      0.1772       0.54246      1.619 
Cr1      Cr     0.95846      0.6772       0.54246      1.619 
O3       O      0.18036      0.14131      0.15982     -0.438 
O3       O      0.68036      0.64131      0.15982     -0.438 
O3       O      0.68036      0.14131      0.65982     -0.438 
O3       O      0.18036      0.64131      0.65982     -0.438 
O2       O      0.97646      0.1761       0.0558699   -0.574 
O2       O      0.47646      0.6761       0.0558699   -0.574 
O2       O      0.47646      0.1761       0.55587     -0.574 
O2       O      0.97646      0.6761       0.55587     -0.574 
O2       O      0.0507005    0.161139     0.0726305   -0.574 
O2       O      0.5507       0.661139     0.0726305   -0.574 
O2       O      0.5507       0.161139     0.572629    -0.574 
O2       O      0.0507005    0.661139     0.572629    -0.574 
O3       O      0.0706804    0.27878      0.0241603   -0.438 
O3       O      0.57068      0.77878      0.0241603   -0.438 
O3       O      0.57068      0.27878      0.52416     -0.438 
O3       O      0.0706804    0.77878      0.52416     -0.438 
O2       O      0.0452295    0.28237      0.0219503   -0.574 
O2       O      0.545229     0.78237      0.0219503   -0.574 
O2       O      0.545229     0.28237      0.52195     -0.574 
O2       O      0.0452295    0.78237      0.52195     -0.574 
O2       O      0.23044      0.42299      0.17561     -0.574 
O2       O      0.73044      0.92299      0.17561     -0.574 
O2       O      0.73044      0.42299      0.67561     -0.574 
O2       O      0.23044      0.92299      0.67561     -0.574 
O2       O      0.24692      0.41224      0.19003     -0.574 
O2       O      0.74692      0.912239     0.19003     -0.574 
O2       O      0.74692      0.41224      0.69003     -0.574 
O2       O      0.24692      0.912239     0.69003     -0.574 
O3       O      0.148759     0.412419     0.22279     -0.438 
O3       O      0.648759     0.912419     0.22279     -0.438 
O3       O      0.648759     0.412419     0.72279     -0.438 
O3       O      0.148759     0.912419     0.72279     -0.438 
O2       O      0.13451      0.392259     0.22747     -0.574 
O2       O      0.63451      0.892259     0.22747     -0.574 
O2       O      0.63451      0.392259     0.72747     -0.574 
O2       O      0.13451      0.892259     0.72747     -0.574 
O2       O      0.12552      0.39875      0.14811     -0.574 
O2       O      0.62552      0.89875      0.14811     -0.574 
O2       O      0.62552      0.39875      0.64811     -0.574 
O2       O      0.12552      0.89875      0.64811     -0.574 
O3       O      0.116311     0.37708      0.15693     -0.438 
O3       O      0.616309     0.87708      0.15693     -0.438 
O3       O      0.616309     0.37708      0.65693     -0.438 
O3       O      0.116311     0.87708      0.65693     -0.438 
O3       O      0.17195      0.30638      0.19089     -0.438 
O3       O      0.67195      0.80638      0.19089     -0.438 
O3       O      0.67195      0.30638      0.69089     -0.438 
O3       O      0.17195      0.80638      0.69089     -0.438 
O3       O      0.12944      0.35161      0.14622     -0.438 
O3       O      0.62944      0.85161      0.14622     -0.438 
O3       O      0.62944      0.35161      0.64622     -0.438 
O3       O      0.12944      0.85161      0.64622     -0.438 
O2       O      0.20379      0.31477      0.22624     -0.574 
O2       O      0.70379      0.81477      0.22624     -0.574 
O2       O      0.70379      0.31477      0.72624     -0.574 
O2       O      0.20379      0.81477      0.72624     -0.574 
O3       O      0.18055      0.31073      0.21912     -0.438 
O3       O      0.68055      0.81073      0.21912     -0.438 
O3       O      0.68055      0.31073      0.71912     -0.438 
O3       O      0.18055      0.81073      0.71912     -0.438 
O2       O      0.17722      0.38308      0.25664     -0.574 
O2       O      0.67722      0.88308      0.25664     -0.574 
O2       O      0.67722      0.38308      0.75664     -0.574 
O2       O      0.17722      0.88308      0.75664     -0.574 
O2       O      0.15475      0.37353      0.24662     -0.574 
O2       O      0.65475      0.87353      0.24662     -0.574 
O2       O      0.65475      0.37353      0.74662     -0.574 
O2       O      0.15475      0.87353      0.74662     -0.574 
C3       C      0.18066      0.1205       0.14071     -0.058 
C3       C      0.68066      0.6205       0.14071     -0.058 
C3       C      0.68066      0.1205       0.64071     -0.058 
C3       C      0.18066      0.6205       0.64071     -0.058 
C3       C      0.00507038   0.16837      0.0620002   -0.058 
C3       C      0.50507      0.66837      0.0620002   -0.058 
C3       C      0.50507      0.16837      0.562       -0.058 
C3       C      0.00507038   0.66837      0.562       -0.058 
C3       C      0.0205201    0.164941     0.0652995   -0.058 
C3       C      0.52052      0.664939     0.0652995   -0.058 
C3       C      0.52052      0.164941     0.565299    -0.058 
C3       C      0.0205201    0.664939     0.565299    -0.058 
C3       C      0.546909     0.26377      0.497479    -0.058 
C3       C      0.0469095    0.76377      0.497479    -0.058 
C3       C      0.0469095    0.26377      0.997479    -0.058 
C3       C      0.546909     0.76377      0.997479    -0.058 
C1       C      0.0573597    0.274        0.0203299    0.496 
C1       C      0.55736      0.774        0.0203299    0.496 
C1       C      0.55736      0.274        0.52033      0.496 
C1       C      0.0573597    0.774        0.52033      0.496 
C2       C      0.0573597    0.26245      0.00940035  -0.07  
C2       C      0.55736      0.76245      0.00940035  -0.07  
C2       C      0.55736      0.26245      0.5094      -0.07  
C2       C      0.0573597    0.76245      0.5094      -0.07  
C3       C      0.0714096    0.25494      0.00632054  -0.058 
C3       C      0.57141      0.75494      0.00632054  -0.058 
C3       C      0.57141      0.25494      0.506319    -0.058 
C3       C      0.0714096    0.75494      0.506319    -0.058 
C3       C      0.20923      0.428159     0.19769     -0.058 
C3       C      0.709229     0.928159     0.19769     -0.058 
C3       C      0.709229     0.428159     0.69769     -0.058 
C3       C      0.20923      0.928159     0.69769     -0.058 
C1       C      0.23456      0.41978      0.1887       0.496 
C1       C      0.73456      0.91978      0.1887       0.496 
C1       C      0.73456      0.41978      0.6887       0.496 
C1       C      0.23456      0.91978      0.6887       0.496 
C2       C      0.222589     0.41889      0.19982     -0.07  
C2       C      0.722589     0.91889      0.19982     -0.07  
C2       C      0.722589     0.41889      0.69982     -0.07  
C2       C      0.222589     0.91889      0.69982     -0.07  
C3       C      0.221969     0.4071       0.21067     -0.058 
C3       C      0.721969     0.9071       0.21067     -0.058 
C3       C      0.721969     0.4071       0.71067     -0.058 
C3       C      0.221969     0.9071       0.71067     -0.058 
C3       C      0.14347      0.40796      0.19184     -0.058 
C3       C      0.64347      0.90796      0.19184     -0.058 
C3       C      0.64347      0.40796      0.69184     -0.058 
C3       C      0.14347      0.90796      0.69184     -0.058 
C1       C      0.13844      0.40329      0.21908      0.496 
C1       C      0.63844      0.90329      0.21908      0.496 
C1       C      0.63844      0.40329      0.71908      0.496 
C1       C      0.13844      0.90329      0.71908      0.496 
C2       C      0.13504      0.40109      0.20404     -0.07  
C2       C      0.63504      0.90109      0.20404     -0.07  
C2       C      0.63504      0.40109      0.70404     -0.07  
C2       C      0.13504      0.90109      0.70404     -0.07  
C3       C      0.13883      0.40528      0.1769      -0.058 
C3       C      0.63883      0.90528      0.1769      -0.058 
C3       C      0.63883      0.40528      0.6769      -0.058 
C3       C      0.13883      0.90528      0.6769      -0.058 
C1       C      0.12309      0.389699     0.15929      0.496 
C1       C      0.62309      0.889699     0.15929      0.496 
C1       C      0.62309      0.389699     0.65929      0.496 
C1       C      0.12309      0.889699     0.65929      0.496 
C2       C      0.1295       0.39231      0.17411     -0.07  
C2       C      0.6295       0.89231      0.17411     -0.07  
C2       C      0.6295       0.39231      0.67411     -0.07  
C2       C      0.1295       0.89231      0.67411     -0.07  
C3       C      0.12746      0.38776      0.201639    -0.058 
C3       C      0.62746      0.88776      0.201639    -0.058 
C3       C      0.62746      0.38776      0.701639    -0.058 
C3       C      0.12746      0.88776      0.701639    -0.058 
C3       C      0.12311      0.38418      0.1865      -0.058 
C3       C      0.62311      0.88418      0.1865      -0.058 
C3       C      0.62311      0.38418      0.6865      -0.058 
C3       C      0.12311      0.88418      0.6865      -0.058 
C3       C      0.15471      0.32049      0.17322     -0.058 
C3       C      0.65471      0.82049      0.17322     -0.058 
C3       C      0.65471      0.32049      0.67322     -0.058 
C3       C      0.15471      0.82049      0.67322     -0.058 
C3       C      0.14645      0.33199      0.16515     -0.058 
C3       C      0.64645      0.83199      0.16515     -0.058 
C3       C      0.64645      0.33199      0.66515     -0.058 
C3       C      0.14645      0.83199      0.66515     -0.058 
C3       C      0.195709     0.34294      0.23645     -0.058 
C3       C      0.695709     0.84294      0.23645     -0.058 
C3       C      0.695709     0.34294      0.73645     -0.058 
C3       C      0.195709     0.84294      0.73645     -0.058 
C1       C      0.19016      0.318699     0.22536      0.496 
C1       C      0.69016      0.818699     0.22536      0.496 
C1       C      0.69016      0.318699     0.72536      0.496 
C1       C      0.19016      0.818699     0.72536      0.496 
C2       C      0.18518      0.33211      0.23193     -0.07  
C2       C      0.68518      0.83211      0.23193     -0.07  
C2       C      0.68518      0.33211      0.73193     -0.07  
C2       C      0.18518      0.83211      0.73193     -0.07  
C3       C      0.190759     0.35578      0.24383     -0.058 
C3       C      0.690759     0.85578      0.24383     -0.058 
C3       C      0.690759     0.35578      0.74383     -0.058 
C3       C      0.190759     0.85578      0.74383     -0.058 
C1       C      0.16918      0.37253      0.24905      0.496 
C1       C      0.669179     0.87253      0.24905      0.496 
C1       C      0.669179     0.37253      0.74905      0.496 
C1       C      0.16918      0.87253      0.74905      0.496 
C2       C      0.17522      0.35825      0.24511     -0.07  
C2       C      0.67522      0.85825      0.24511     -0.07  
C2       C      0.67522      0.35825      0.74511     -0.07  
C2       C      0.17522      0.85825      0.74511     -0.07  
C3       C      0.16968      0.33516      0.23154     -0.058 
C3       C      0.66968      0.83516      0.23154     -0.058 
C3       C      0.66968      0.33516      0.73154     -0.058 
C3       C      0.16968      0.83516      0.73154     -0.058 
C3       C      0.16458      0.34842      0.23829     -0.058 
C3       C      0.66458      0.84842      0.23829     -0.058 
C3       C      0.66458      0.34842      0.73829     -0.058 
C3       C      0.16458      0.84842      0.73829     -0.058 
H1       H      0.999673     0.1633       0.0525054    0.108 
H1       H      0.499673     0.6633       0.0525054    0.108 
H1       H      0.499673     0.1633       0.552505     0.108 
H1       H      0.999673     0.6633       0.552505     0.108 
H1       H      0.0263737    0.156687     0.0587888    0.108 
H1       H      0.526374     0.656687     0.0587888    0.108 
H1       H      0.526374     0.156687     0.558789     0.108 
H1       H      0.0263737    0.656687     0.558789     0.108 
H1       H      0.151732     0.317782     0.184559     0.108 
H1       H      0.651732     0.817782     0.184559     0.108 
H1       H      0.651732     0.317782     0.684559     0.108 
H1       H      0.151732     0.817782     0.684559     0.108 
H1       H      0.135871     0.335875     0.169365     0.108 
H1       H      0.635871     0.835875     0.169365     0.108 
H1       H      0.635871     0.335875     0.669365     0.108 
H1       H      0.135871     0.835875     0.669365     0.108 
H1       H      0.1789       0.118168     0.152376     0.108 
H1       H      0.6789       0.618168     0.152376     0.108 
H1       H      0.6789       0.118168     0.652376     0.108 
H1       H      0.1789       0.618168     0.652376     0.108 
H1       H      0.539301     0.273085     0.497154     0.108 
H1       H      0.0393005    0.773084     0.497154     0.108 
H1       H      0.0393005    0.273085     0.997154     0.108 
H1       H      0.539301     0.773084     0.997154     0.108 
H1       H      0.162162     0.327439     0.226188     0.108 
H1       H      0.662162     0.827439     0.226188     0.108 
H1       H      0.662162     0.327439     0.726188     0.108 
H1       H      0.162162     0.827439     0.726188     0.108 
H1       H      0.152826     0.35105      0.238275     0.108 
H1       H      0.652826     0.85105      0.238275     0.108 
H1       H      0.652826     0.35105      0.738275     0.108 
H1       H      0.152826     0.85105      0.738275     0.108 
H1       H      0.207413     0.34126      0.234202     0.108 
H1       H      0.707413     0.84126      0.234202     0.108 
H1       H      0.707413     0.34126      0.734202     0.108 
H1       H      0.207413     0.84126      0.734202     0.108 
H1       H      0.198741     0.363551     0.248402     0.108 
H1       H      0.698741     0.863551     0.248402     0.108 
H1       H      0.698741     0.363551     0.748402     0.108 
H1       H      0.198741     0.863551     0.748402     0.108 
H1       H      0.208052     0.43482      0.187739     0.108 
H1       H      0.708052     0.93482      0.187739     0.108 
H1       H      0.708052     0.43482      0.687738     0.108 
H1       H      0.208052     0.93482      0.687738     0.108 
H1       H      0.230042     0.398184     0.210333     0.108 
H1       H      0.730042     0.898184     0.210333     0.108 
H1       H      0.730042     0.398184     0.710333     0.108 
H1       H      0.230042     0.898184     0.710333     0.108 
H1       H      0.125009     0.380481     0.210901     0.108 
H1       H      0.625009     0.880481     0.210901     0.108 
H1       H      0.625009     0.380481     0.710901     0.108 
H1       H      0.125009     0.880481     0.710901     0.108 
H1       H      0.115095     0.375439     0.184467     0.108 
H1       H      0.615095     0.875439     0.184467     0.108 
H1       H      0.615095     0.375439     0.684467     0.108 
H1       H      0.115095     0.875439     0.684467     0.108 
H1       H      0.153        0.414902     0.194271     0.108 
H1       H      0.653        0.914902     0.194271     0.108 
H1       H      0.653        0.414902     0.69427      0.108 
H1       H      0.153        0.914902     0.69427      0.108 
H1       H      0.142242     0.412752     0.168108     0.108 
H1       H      0.642242     0.912752     0.168108     0.108 
H1       H      0.642242     0.412752     0.668108     0.108 
H1       H      0.142242     0.912752     0.668108     0.108 
H1       H      0.0813152    0.257953     0.0124565    0.108 
H1       H      0.581315     0.757953     0.0124565    0.108 
H1       H      0.581315     0.257953     0.512457     0.108 
H1       H      0.0813152    0.757953     0.512457     0.108 
Cr1      Cr     0.57201      0.48709      0.40527      1.619 
Cr1      Cr     0.0720105    0.98709      0.40527      1.619 
Cr1      Cr     0.0720105    0.48709      0.90527      1.619 
Cr1      Cr     0.57201      0.98709      0.90527      1.619 
Cr1      Cr     0.20754      0.29154      0.1772       1.619 
Cr1      Cr     0.70754      0.79154      0.1772       1.619 
Cr1      Cr     0.70754      0.29154      0.6772       1.619 
Cr1      Cr     0.20754      0.79154      0.6772       1.619 
O2       O      0.0901799    0.0696396    0.14131     -0.574 
O2       O      0.59018      0.56964      0.14131     -0.574 
O2       O      0.59018      0.0696396    0.64131     -0.574 
O2       O      0.0901799    0.56964      0.64131     -0.574 
O2       O      0.19413      0.27354      0.1761      -0.574 
O2       O      0.69413      0.77354      0.1761      -0.574 
O2       O      0.69413      0.27354      0.6761      -0.574 
O2       O      0.19413      0.77354      0.6761      -0.574 
O2       O      0.17737      0.1993       0.161139    -0.574 
O2       O      0.67737      0.6993       0.161139    -0.574 
O2       O      0.67737      0.1993       0.661139    -0.574 
O2       O      0.17737      0.6993       0.661139    -0.574 
O2       O      0.22584      0.17932      0.27878     -0.574 
O2       O      0.72584      0.67932      0.27878     -0.574 
O2       O      0.72584      0.17932      0.77878     -0.574 
O2       O      0.22584      0.67932      0.77878     -0.574 
O3       O      0.22805      0.20477      0.28237     -0.438 
O3       O      0.72805      0.70477      0.28237     -0.438 
O3       O      0.72805      0.20477      0.78237     -0.438 
O3       O      0.22805      0.70477      0.78237     -0.438 
O3       O      0.0743904    0.0195603    0.42299     -0.438 
O3       O      0.57439      0.51956      0.42299     -0.438 
O3       O      0.57439      0.0195603    0.92299     -0.438 
O3       O      0.0743904    0.51956      0.92299     -0.438 
O2       O      0.0599703    0.00307981   0.41224     -0.574 
O2       O      0.55997      0.50308      0.41224     -0.574 
O2       O      0.55997      0.00307981   0.912239    -0.574 
O2       O      0.0599703    0.50308      0.912239    -0.574 
O2       O      0.0272097    0.10124      0.412419    -0.574 
O2       O      0.52721      0.60124      0.412419    -0.574 
O2       O      0.52721      0.10124      0.912419    -0.574 
O2       O      0.0272097    0.60124      0.912419    -0.574 
O2       O      0.0225298    0.11549      0.392259    -0.574 
O2       O      0.52253      0.61549      0.392259    -0.574 
O2       O      0.52253      0.11549      0.892259    -0.574 
O2       O      0.0225298    0.61549      0.892259    -0.574 
O2       O      0.10189      0.12448      0.39875     -0.574 
O2       O      0.60189      0.62448      0.39875     -0.574 
O2       O      0.60189      0.12448      0.89875     -0.574 
O2       O      0.10189      0.62448      0.89875     -0.574 
O3       O      0.0930696    0.13369      0.37708     -0.438 
O3       O      0.59307      0.63369      0.37708     -0.438 
O3       O      0.59307      0.13369      0.87708     -0.438 
O3       O      0.0930696    0.63369      0.87708     -0.438 
O2       O      0.0591095    0.0780497    0.30638     -0.574 
O2       O      0.559109     0.57805      0.30638     -0.574 
O2       O      0.559109     0.0780497    0.80638     -0.574 
O2       O      0.0591095    0.57805      0.80638     -0.574 
O3       O      0.10378      0.120559     0.35161     -0.438 
O3       O      0.60378      0.620559     0.35161     -0.438 
O3       O      0.60378      0.120559     0.85161     -0.438 
O3       O      0.10378      0.620559     0.85161     -0.438 
O2       O      0.0237597    0.0462096    0.31477     -0.574 
O2       O      0.52376      0.54621      0.31477     -0.574 
O2       O      0.52376      0.0462096    0.81477     -0.574 
O2       O      0.0237597    0.54621      0.81477     -0.574 
O2       O      0.0308803    0.0694505    0.31073     -0.574 
O2       O      0.53088      0.569449     0.31073     -0.574 
O2       O      0.53088      0.0694505    0.81073     -0.574 
O2       O      0.0308803    0.569449     0.81073     -0.574 
O3       O      0.99336      0.0727802    0.38308     -0.438 
O3       O      0.49336      0.57278      0.38308     -0.438 
O3       O      0.49336      0.0727802    0.88308     -0.438 
O3       O      0.99336      0.57278      0.88308     -0.438 
O2       O      0.00338026   0.0952503    0.37353     -0.574 
O2       O      0.50338      0.59525      0.37353     -0.574 
O2       O      0.50338      0.0952503    0.87353     -0.574 
O2       O      0.00338026   0.59525      0.87353     -0.574 
C3       C      0.10929      0.0693403    0.1205      -0.058 
C3       C      0.60929      0.56934      0.1205      -0.058 
C3       C      0.60929      0.0693403    0.6205      -0.058 
C3       C      0.10929      0.56934      0.6205      -0.058 
C3       C      0.188        0.24493      0.16837     -0.058 
C3       C      0.688        0.74493      0.16837     -0.058 
C3       C      0.688        0.24493      0.66837     -0.058 
C3       C      0.188        0.74493      0.66837     -0.058 
C3       C      0.1847       0.22948      0.164941    -0.058 
C3       C      0.6847       0.72948      0.164941    -0.058 
C3       C      0.6847       0.22948      0.664939    -0.058 
C3       C      0.1847       0.72948      0.664939    -0.058 
C3       C      0.25252      0.20309      0.26377     -0.058 
C3       C      0.75252      0.70309      0.26377     -0.058 
C3       C      0.75252      0.20309      0.76377     -0.058 
C3       C      0.25252      0.70309      0.76377     -0.058 
C1       C      0.22967      0.19264      0.274        0.496 
C1       C      0.72967      0.69264      0.274        0.496 
C1       C      0.72967      0.19264      0.774        0.496 
C1       C      0.22967      0.69264      0.774        0.496 
C2       C      0.2406       0.19264      0.26245     -0.07  
C2       C      0.7406       0.69264      0.26245     -0.07  
C2       C      0.7406       0.19264      0.76245     -0.07  
C2       C      0.2406       0.69264      0.76245     -0.07  
C3       C      0.24368      0.17859      0.25494     -0.058 
C3       C      0.74368      0.67859      0.25494     -0.058 
C3       C      0.74368      0.17859      0.75494     -0.058 
C3       C      0.24368      0.67859      0.75494     -0.058 
C3       C      0.0523096    0.0407701    0.428159    -0.058 
C3       C      0.55231      0.54077      0.428159    -0.058 
C3       C      0.55231      0.0407701    0.928159    -0.058 
C3       C      0.0523096    0.54077      0.928159    -0.058 
C1       C      0.0613003    0.0154396    0.41978      0.496 
C1       C      0.5613       0.51544      0.41978      0.496 
C1       C      0.5613       0.0154396    0.91978      0.496 
C1       C      0.0613003    0.51544      0.91978      0.496 
C2       C      0.0501795    0.02741      0.41889     -0.07  
C2       C      0.550179     0.52741      0.41889     -0.07  
C2       C      0.550179     0.02741      0.91889     -0.07  
C2       C      0.0501795    0.52741      0.91889     -0.07  
C3       C      0.0393298    0.02803      0.4071      -0.058 
C3       C      0.53933      0.52803      0.4071      -0.058 
C3       C      0.53933      0.02803      0.9071      -0.058 
C3       C      0.0393298    0.52803      0.9071      -0.058 
C3       C      0.0581598    0.10653      0.40796     -0.058 
C3       C      0.55816      0.60653      0.40796     -0.058 
C3       C      0.55816      0.10653      0.90796     -0.058 
C3       C      0.0581598    0.60653      0.90796     -0.058 
C1       C      0.0309197    0.11156      0.40329      0.496 
C1       C      0.53092      0.61156      0.40329      0.496 
C1       C      0.53092      0.11156      0.90329      0.496 
C1       C      0.0309197    0.61156      0.90329      0.496 
C2       C      0.0459598    0.11496      0.40109     -0.07  
C2       C      0.54596      0.61496      0.40109     -0.07  
C2       C      0.54596      0.11496      0.90109     -0.07  
C2       C      0.0459598    0.61496      0.90109     -0.07  
C3       C      0.0730997    0.11117      0.40528     -0.058 
C3       C      0.5731       0.61117      0.40528     -0.058 
C3       C      0.5731       0.11117      0.90528     -0.058 
C3       C      0.0730997    0.61117      0.90528     -0.058 
C1       C      0.0907099    0.12691      0.389699     0.496 
C1       C      0.59071      0.62691      0.389699     0.496 
C1       C      0.59071      0.12691      0.889699     0.496 
C1       C      0.0907099    0.62691      0.889699     0.496 
C2       C      0.0758904    0.1205       0.39231     -0.07  
C2       C      0.57589      0.6205       0.39231     -0.07  
C2       C      0.57589      0.1205       0.89231     -0.07  
C2       C      0.0758904    0.6205       0.89231     -0.07  
C3       C      0.0483599    0.12254      0.38776     -0.058 
C3       C      0.54836      0.62254      0.38776     -0.058 
C3       C      0.54836      0.12254      0.88776     -0.058 
C3       C      0.0483599    0.62254      0.88776     -0.058 
C3       C      0.0635002    0.12689      0.38418     -0.058 
C3       C      0.5635       0.62689      0.38418     -0.058 
C3       C      0.5635       0.12689      0.88418     -0.058 
C3       C      0.0635002    0.62689      0.88418     -0.058 
C3       C      0.0767804    0.0952897    0.32049     -0.058 
C3       C      0.57678      0.59529      0.32049     -0.058 
C3       C      0.57678      0.0952897    0.82049     -0.058 
C3       C      0.0767804    0.59529      0.82049     -0.058 
C3       C      0.0848496    0.10355      0.33199     -0.058 
C3       C      0.58485      0.60355      0.33199     -0.058 
C3       C      0.58485      0.10355      0.83199     -0.058 
C3       C      0.0848496    0.60355      0.83199     -0.058 
C3       C      0.0135503    0.05429      0.34294     -0.058 
C3       C      0.51355      0.55429      0.34294     -0.058 
C3       C      0.51355      0.05429      0.84294     -0.058 
C3       C      0.0135503    0.55429      0.84294     -0.058 
C1       C      0.0246396    0.0598398    0.318699     0.496 
C1       C      0.52464      0.55984      0.318699     0.496 
C1       C      0.52464      0.0598398    0.818699     0.496 
C1       C      0.0246396    0.55984      0.818699     0.496 
C2       C      0.0180704    0.0648201    0.33211     -0.07  
C2       C      0.51807      0.56482      0.33211     -0.07  
C2       C      0.51807      0.0648201    0.83211     -0.07  
C2       C      0.0180704    0.56482      0.83211     -0.07  
C3       C      0.00616976   0.05924      0.35578     -0.058 
C3       C      0.50617      0.55924      0.35578     -0.058 
C3       C      0.50617      0.05924      0.85578     -0.058 
C3       C      0.00616976   0.55924      0.85578     -0.058 
C1       C      0.000949712  0.0808201    0.37253      0.496 
C1       C      0.50095      0.58082      0.37253      0.496 
C1       C      0.50095      0.0808201    0.87253      0.496 
C1       C      0.000949712  0.58082      0.87253      0.496 
C2       C      0.00489034   0.0747797    0.35825     -0.07  
C2       C      0.50489      0.57478      0.35825     -0.07  
C2       C      0.50489      0.0747797    0.85825     -0.07  
C2       C      0.00489034   0.57478      0.85825     -0.07  
C3       C      0.0184598    0.0803205    0.33516     -0.058 
C3       C      0.51846      0.58032      0.33516     -0.058 
C3       C      0.51846      0.0803205    0.83516     -0.058 
C3       C      0.0184598    0.58032      0.83516     -0.058 
C3       C      0.0117105    0.0854201    0.34842     -0.058 
C3       C      0.51171      0.58542      0.34842     -0.058 
C3       C      0.51171      0.0854201    0.84842     -0.058 
C3       C      0.0117105    0.58542      0.84842     -0.058 
H1       H      0.197495     0.250328     0.1633       0.108 
H1       H      0.697495     0.750327     0.1633       0.108 
H1       H      0.697495     0.250328     0.6633       0.108 
H1       H      0.197495     0.750327     0.6633       0.108 
H1       H      0.191211     0.223627     0.156687     0.108 
H1       H      0.691211     0.723627     0.156687     0.108 
H1       H      0.691211     0.223627     0.656687     0.108 
H1       H      0.191211     0.723627     0.656687     0.108 
H1       H      0.0654413    0.0982682    0.317782     0.108 
H1       H      0.565441     0.598268     0.317782     0.108 
H1       H      0.565441     0.0982682    0.817782     0.108 
H1       H      0.0654413    0.598268     0.817782     0.108 
H1       H      0.0806355    0.114129     0.335875     0.108 
H1       H      0.580636     0.614129     0.335875     0.108 
H1       H      0.580636     0.114129     0.835875     0.108 
H1       H      0.0806355    0.614129     0.835875     0.108 
H1       H      0.0976246    0.071099     0.118168     0.108 
H1       H      0.597625     0.571099     0.118168     0.108 
H1       H      0.597625     0.071099     0.618168     0.108 
H1       H      0.0976246    0.571099     0.618168     0.108 
H1       H      0.252846     0.210699     0.273085     0.108 
H1       H      0.752846     0.710699     0.273085     0.108 
H1       H      0.752846     0.210699     0.773084     0.108 
H1       H      0.252846     0.710699     0.773084     0.108 
H1       H      0.0238126    0.0878372    0.327439     0.108 
H1       H      0.523813     0.587837     0.327439     0.108 
H1       H      0.523813     0.0878372    0.827439     0.108 
H1       H      0.0238126    0.587837     0.827439     0.108 
H1       H      0.011724     0.0971745    0.35105      0.108 
H1       H      0.511724     0.597174     0.35105      0.108 
H1       H      0.511724     0.0971745    0.85105      0.108 
H1       H      0.011724     0.597174     0.85105      0.108 
H1       H      0.0157974    0.0425863    0.34126      0.108 
H1       H      0.515797     0.542586     0.34126      0.108 
H1       H      0.515797     0.0425863    0.84126      0.108 
H1       H      0.0157974    0.542586     0.84126      0.108 
H1       H      0.00159786   0.0512586    0.363551     0.108 
H1       H      0.501598     0.551259     0.363551     0.108 
H1       H      0.501598     0.0512586    0.863551     0.108 
H1       H      0.00159786   0.551259     0.863551     0.108 
H1       H      0.0622613    0.0419471    0.43482      0.108 
H1       H      0.562261     0.541947     0.43482      0.108 
H1       H      0.562261     0.0419471    0.93482      0.108 
H1       H      0.0622613    0.541947     0.93482      0.108 
H1       H      0.0396663    0.0199575    0.398184     0.108 
H1       H      0.539666     0.519957     0.398184     0.108 
H1       H      0.539666     0.0199575    0.898184     0.108 
H1       H      0.0396663    0.519957     0.898184     0.108 
H1       H      0.039098     0.124991     0.380481     0.108 
H1       H      0.539098     0.624991     0.380481     0.108 
H1       H      0.539098     0.124991     0.880481     0.108 
H1       H      0.039098     0.624991     0.880481     0.108 
H1       H      0.0655324    0.134905     0.375439     0.108 
H1       H      0.565532     0.634905     0.375439     0.108 
H1       H      0.565532     0.134905     0.875439     0.108 
H1       H      0.0655324    0.634905     0.875439     0.108 
H1       H      0.0557292    0.0970001    0.414902     0.108 
H1       H      0.555729     0.597        0.414902     0.108 
H1       H      0.555729     0.0970001    0.914902     0.108 
H1       H      0.0557292    0.597        0.914902     0.108 
H1       H      0.0818913    0.107759     0.412752     0.108 
H1       H      0.581891     0.607759     0.412752     0.108 
H1       H      0.581891     0.107759     0.912752     0.108 
H1       H      0.0818913    0.607759     0.912752     0.108 
H1       H      0.237544     0.168684     0.257953     0.108 
H1       H      0.737544     0.668684     0.257953     0.108 
H1       H      0.737544     0.168684     0.757953     0.108 
H1       H      0.237544     0.668684     0.757953     0.108 
Cr2      Cr     0.17799      0.48709      0.34473      1.35  
Cr2      Cr     0.67799      0.98709      0.34473      1.35  
Cr2      Cr     0.67799      0.48709      0.84473      1.35  
Cr2      Cr     0.17799      0.98709      0.84473      1.35  
Cr1      Cr     0.0424603    0.29154      0.0728004    1.619 
Cr1      Cr     0.54246      0.79154      0.0728004    1.619 
Cr1      Cr     0.54246      0.29154      0.5728       1.619 
Cr1      Cr     0.0424603    0.79154      0.5728       1.619 
O2       O      0.15982      0.0696396    0.10869     -0.574 
O2       O      0.65982      0.56964      0.10869     -0.574 
O2       O      0.65982      0.0696396    0.60869     -0.574 
O2       O      0.15982      0.56964      0.60869     -0.574 
O2       O      0.0558699    0.27354      0.0738998   -0.574 
O2       O      0.55587      0.77354      0.0738998   -0.574 
O2       O      0.55587      0.27354      0.5739      -0.574 
O2       O      0.0558699    0.77354      0.5739      -0.574 
O3       O      0.0726305    0.1993       0.08886     -0.438 
O3       O      0.572629     0.6993       0.08886     -0.438 
O3       O      0.572629     0.1993       0.58886     -0.438 
O3       O      0.0726305    0.6993       0.58886     -0.438 
O3       O      0.52416      0.17932      0.471219    -0.438 
O3       O      0.0241603    0.67932      0.471219    -0.438 
O3       O      0.0241603    0.17932      0.971219    -0.438 
O3       O      0.52416      0.67932      0.971219    -0.438 
O2       O      0.52195      0.20477      0.46763     -0.574 
O2       O      0.0219503    0.70477      0.46763     -0.574 
O2       O      0.0219503    0.20477      0.96763     -0.574 
O2       O      0.52195      0.70477      0.96763     -0.574 
O2       O      0.67561      0.0195603    0.327009    -0.574 
O2       O      0.17561      0.51956      0.327009    -0.574 
O2       O      0.17561      0.0195603    0.827009    -0.574 
O2       O      0.67561      0.51956      0.827009    -0.574 
O3       O      0.69003      0.00307981   0.33776     -0.438 
O3       O      0.19003      0.50308      0.33776     -0.438 
O3       O      0.19003      0.00307981   0.83776     -0.438 
O3       O      0.69003      0.50308      0.83776     -0.438 
O3       O      0.72279      0.10124      0.33758     -0.438 
O3       O      0.22279      0.60124      0.33758     -0.438 
O3       O      0.22279      0.10124      0.83758     -0.438 
O3       O      0.72279      0.60124      0.83758     -0.438 
O2       O      0.72747      0.11549      0.35774     -0.574 
O2       O      0.22747      0.61549      0.35774     -0.574 
O2       O      0.22747      0.11549      0.85774     -0.574 
O2       O      0.72747      0.61549      0.85774     -0.574 
O2       O      0.64811      0.12448      0.35125     -0.574 
O2       O      0.14811      0.62448      0.35125     -0.574 
O2       O      0.14811      0.12448      0.85125     -0.574 
O2       O      0.64811      0.62448      0.85125     -0.574 
O3       O      0.65693      0.13369      0.37292     -0.438 
O3       O      0.15693      0.63369      0.37292     -0.438 
O3       O      0.15693      0.13369      0.87292     -0.438 
O3       O      0.65693      0.63369      0.87292     -0.438 
O2       O      0.69089      0.0780497    0.44362     -0.574 
O2       O      0.19089      0.57805      0.44362     -0.574 
O2       O      0.19089      0.0780497    0.94362     -0.574 
O2       O      0.69089      0.57805      0.94362     -0.574 
O3       O      0.64622      0.120559     0.39839     -0.438 
O3       O      0.14622      0.620559     0.39839     -0.438 
O3       O      0.14622      0.120559     0.89839     -0.438 
O3       O      0.64622      0.620559     0.89839     -0.438 
O2       O      0.72624      0.0462096    0.435231    -0.574 
O2       O      0.22624      0.54621      0.435231    -0.574 
O2       O      0.22624      0.0462096    0.935229    -0.574 
O2       O      0.72624      0.54621      0.935229    -0.574 
O2       O      0.71912      0.0694505    0.43927     -0.574 
O2       O      0.21912      0.569449     0.43927     -0.574 
O2       O      0.21912      0.0694505    0.93927     -0.574 
O2       O      0.71912      0.569449     0.93927     -0.574 
O2       O      0.75664      0.0727802    0.36692     -0.574 
O2       O      0.25664      0.57278      0.36692     -0.574 
O2       O      0.25664      0.0727802    0.86692     -0.574 
O2       O      0.75664      0.57278      0.86692     -0.574 
O2       O      0.74662      0.0952503    0.37647     -0.574 
O2       O      0.24662      0.59525      0.37647     -0.574 
O2       O      0.24662      0.0952503    0.87647     -0.574 
O2       O      0.74662      0.59525      0.87647     -0.574 
F1       F      0.1975       0.47474      0.3442      -0.547 
F1       F      0.6975       0.97474      0.3442      -0.547 
F1       F      0.6975       0.47474      0.8442      -0.547 
F1       F      0.1975       0.97474      0.8442      -0.547 
C3       C      0.14071      0.0693403    0.1295      -0.058 
C3       C      0.64071      0.56934      0.1295      -0.058 
C3       C      0.64071      0.0693403    0.6295      -0.058 
C3       C      0.14071      0.56934      0.6295      -0.058 
C3       C      0.0620002    0.24493      0.0816303   -0.058 
C3       C      0.562        0.74493      0.0816303   -0.058 
C3       C      0.562        0.24493      0.58163     -0.058 
C3       C      0.0620002    0.74493      0.58163     -0.058 
C3       C      0.0652995    0.22948      0.08506     -0.058 
C3       C      0.565299     0.72948      0.08506     -0.058 
C3       C      0.565299     0.22948      0.58506     -0.058 
C3       C      0.0652995    0.72948      0.58506     -0.058 
C3       C      0.497479     0.20309      0.48623     -0.058 
C3       C      0.997479     0.70309      0.48623     -0.058 
C3       C      0.997479     0.20309      0.98623     -0.058 
C3       C      0.497479     0.70309      0.98623     -0.058 
C1       C      0.52033      0.19264      0.476        0.496 
C1       C      0.0203299    0.69264      0.476        0.496 
C1       C      0.0203299    0.19264      0.976        0.496 
C1       C      0.52033      0.69264      0.976        0.496 
C2       C      0.5094       0.19264      0.48755     -0.07  
C2       C      0.00940035   0.69264      0.48755     -0.07  
C2       C      0.00940035   0.19264      0.98755     -0.07  
C2       C      0.5094       0.69264      0.98755     -0.07  
C3       C      0.506319     0.17859      0.49506     -0.058 
C3       C      0.00632054   0.67859      0.49506     -0.058 
C3       C      0.00632054   0.17859      0.99506     -0.058 
C3       C      0.506319     0.67859      0.99506     -0.058 
C3       C      0.69769      0.0407701    0.32184     -0.058 
C3       C      0.19769      0.54077      0.32184     -0.058 
C3       C      0.19769      0.0407701    0.82184     -0.058 
C3       C      0.69769      0.54077      0.82184     -0.058 
C1       C      0.6887       0.0154396    0.33022      0.496 
C1       C      0.1887       0.51544      0.33022      0.496 
C1       C      0.1887       0.0154396    0.83022      0.496 
C1       C      0.6887       0.51544      0.83022      0.496 
C2       C      0.69982      0.02741      0.33111     -0.07  
C2       C      0.19982      0.52741      0.33111     -0.07  
C2       C      0.19982      0.02741      0.83111     -0.07  
C2       C      0.69982      0.52741      0.83111     -0.07  
C3       C      0.71067      0.02803      0.3429      -0.058 
C3       C      0.21067      0.52803      0.3429      -0.058 
C3       C      0.21067      0.02803      0.8429      -0.058 
C3       C      0.71067      0.52803      0.8429      -0.058 
C3       C      0.69184      0.10653      0.342039    -0.058 
C3       C      0.19184      0.60653      0.342039    -0.058 
C3       C      0.19184      0.10653      0.842039    -0.058 
C3       C      0.69184      0.60653      0.842039    -0.058 
C1       C      0.71908      0.11156      0.34671      0.496 
C1       C      0.21908      0.61156      0.34671      0.496 
C1       C      0.21908      0.11156      0.84671      0.496 
C1       C      0.71908      0.61156      0.84671      0.496 
C2       C      0.70404      0.11496      0.34891     -0.07  
C2       C      0.20404      0.61496      0.34891     -0.07  
C2       C      0.20404      0.11496      0.84891     -0.07  
C2       C      0.70404      0.61496      0.84891     -0.07  
C3       C      0.6769       0.11117      0.34472     -0.058 
C3       C      0.1769       0.61117      0.34472     -0.058 
C3       C      0.1769       0.11117      0.84472     -0.058 
C3       C      0.6769       0.61117      0.84472     -0.058 
C1       C      0.65929      0.12691      0.3603       0.496 
C1       C      0.15929      0.62691      0.3603       0.496 
C1       C      0.15929      0.12691      0.8603       0.496 
C1       C      0.65929      0.62691      0.8603       0.496 
C2       C      0.67411      0.1205       0.357689    -0.07  
C2       C      0.17411      0.6205       0.357689    -0.07  
C2       C      0.17411      0.1205       0.857689    -0.07  
C2       C      0.67411      0.6205       0.857689    -0.07  
C3       C      0.701639     0.12254      0.36224     -0.058 
C3       C      0.201639     0.62254      0.36224     -0.058 
C3       C      0.201639     0.12254      0.86224     -0.058 
C3       C      0.701639     0.62254      0.86224     -0.058 
C3       C      0.6865       0.12689      0.36582     -0.058 
C3       C      0.1865       0.62689      0.36582     -0.058 
C3       C      0.1865       0.12689      0.865819    -0.058 
C3       C      0.6865       0.62689      0.865819    -0.058 
C3       C      0.67322      0.0952897    0.42951     -0.058 
C3       C      0.17322      0.59529      0.42951     -0.058 
C3       C      0.17322      0.0952897    0.92951     -0.058 
C3       C      0.67322      0.59529      0.92951     -0.058 
C3       C      0.66515      0.10355      0.41801     -0.058 
C3       C      0.16515      0.60355      0.41801     -0.058 
C3       C      0.16515      0.10355      0.91801     -0.058 
C3       C      0.66515      0.60355      0.91801     -0.058 
C3       C      0.73645      0.05429      0.40706     -0.058 
C3       C      0.23645      0.55429      0.40706     -0.058 
C3       C      0.23645      0.05429      0.90706     -0.058 
C3       C      0.73645      0.55429      0.90706     -0.058 
C1       C      0.72536      0.0598398    0.4313       0.496 
C1       C      0.22536      0.55984      0.4313       0.496 
C1       C      0.22536      0.0598398    0.9313       0.496 
C1       C      0.72536      0.55984      0.9313       0.496 
C2       C      0.73193      0.0648201    0.41789     -0.07  
C2       C      0.23193      0.56482      0.41789     -0.07  
C2       C      0.23193      0.0648201    0.91789     -0.07  
C2       C      0.73193      0.56482      0.91789     -0.07  
C3       C      0.74383      0.05924      0.39422     -0.058 
C3       C      0.24383      0.55924      0.39422     -0.058 
C3       C      0.24383      0.05924      0.89422     -0.058 
C3       C      0.74383      0.55924      0.89422     -0.058 
C1       C      0.74905      0.0808201    0.37747      0.496 
C1       C      0.24905      0.58082      0.37747      0.496 
C1       C      0.24905      0.0808201    0.87747      0.496 
C1       C      0.74905      0.58082      0.87747      0.496 
C2       C      0.74511      0.0747797    0.39175     -0.07  
C2       C      0.24511      0.57478      0.39175     -0.07  
C2       C      0.24511      0.0747797    0.89175     -0.07  
C2       C      0.74511      0.57478      0.89175     -0.07  
C3       C      0.73154      0.0803205    0.41484     -0.058 
C3       C      0.23154      0.58032      0.41484     -0.058 
C3       C      0.23154      0.0803205    0.91484     -0.058 
C3       C      0.73154      0.58032      0.91484     -0.058 
C3       C      0.73829      0.0854201    0.40158     -0.058 
C3       C      0.23829      0.58542      0.40158     -0.058 
C3       C      0.23829      0.0854201    0.90158     -0.058 
C3       C      0.73829      0.58542      0.90158     -0.058 
H1       H      0.0525054    0.250328     0.0867006    0.108 
H1       H      0.552505     0.750327     0.0867006    0.108 
H1       H      0.552505     0.250328     0.586701     0.108 
H1       H      0.0525054    0.750327     0.586701     0.108 
H1       H      0.0587888    0.223627     0.0933138    0.108 
H1       H      0.558789     0.723627     0.0933138    0.108 
H1       H      0.558789     0.223627     0.593314     0.108 
H1       H      0.0587888    0.723627     0.593314     0.108 
H1       H      0.684559     0.0982682    0.432217     0.108 
H1       H      0.184559     0.598268     0.432217     0.108 
H1       H      0.184559     0.0982682    0.932217     0.108 
H1       H      0.684559     0.598268     0.932217     0.108 
H1       H      0.669365     0.114129     0.414125     0.108 
H1       H      0.169365     0.614129     0.414125     0.108 
H1       H      0.169365     0.114129     0.914125     0.108 
H1       H      0.669365     0.614129     0.914125     0.108 
H1       H      0.152376     0.071099     0.131832     0.108 
H1       H      0.652376     0.571099     0.131832     0.108 
H1       H      0.652376     0.071099     0.631832     0.108 
H1       H      0.152376     0.571099     0.631832     0.108 
H1       H      0.497154     0.210699     0.476915     0.108 
H1       H      0.997154     0.710699     0.476915     0.108 
H1       H      0.997154     0.210699     0.976915     0.108 
H1       H      0.497154     0.710699     0.976915     0.108 
H1       H      0.726188     0.0878372    0.42256      0.108 
H1       H      0.226188     0.587837     0.42256      0.108 
H1       H      0.226188     0.0878372    0.92256      0.108 
H1       H      0.726188     0.587837     0.92256      0.108 
H1       H      0.738275     0.0971745    0.39895      0.108 
H1       H      0.238275     0.597174     0.39895      0.108 
H1       H      0.238275     0.0971745    0.89895      0.108 
H1       H      0.738275     0.597174     0.89895      0.108 
H1       H      0.734202     0.0425863    0.40874      0.108 
H1       H      0.234202     0.542586     0.40874      0.108 
H1       H      0.234202     0.0425863    0.90874      0.108 
H1       H      0.734202     0.542586     0.90874      0.108 
H1       H      0.748402     0.0512586    0.386449     0.108 
H1       H      0.248402     0.551259     0.386449     0.108 
H1       H      0.248402     0.0512586    0.886449     0.108 
H1       H      0.748402     0.551259     0.886449     0.108 
H1       H      0.687738     0.0419471    0.31518      0.108 
H1       H      0.187739     0.541947     0.31518      0.108 
H1       H      0.187739     0.0419471    0.81518      0.108 
H1       H      0.687738     0.541947     0.81518      0.108 
H1       H      0.710333     0.0199575    0.351816     0.108 
H1       H      0.210333     0.519957     0.351816     0.108 
H1       H      0.210333     0.0199575    0.851816     0.108 
H1       H      0.710333     0.519957     0.851816     0.108 
H1       H      0.710901     0.124991     0.369518     0.108 
H1       H      0.210901     0.624991     0.369518     0.108 
H1       H      0.210901     0.124991     0.869518     0.108 
H1       H      0.710901     0.624991     0.869518     0.108 
H1       H      0.684467     0.134905     0.37456      0.108 
H1       H      0.184467     0.634905     0.37456      0.108 
H1       H      0.184467     0.134905     0.87456      0.108 
H1       H      0.684467     0.634905     0.87456      0.108 
H1       H      0.69427      0.0970001    0.335099     0.108 
H1       H      0.194271     0.597        0.335099     0.108 
H1       H      0.194271     0.0970001    0.835099     0.108 
H1       H      0.69427      0.597        0.835099     0.108 
H1       H      0.668108     0.107759     0.337247     0.108 
H1       H      0.168108     0.607759     0.337247     0.108 
H1       H      0.168108     0.107759     0.837247     0.108 
H1       H      0.668108     0.607759     0.837247     0.108 
H1       H      0.512457     0.168684     0.492047     0.108 
H1       H      0.0124565    0.668684     0.492047     0.108 
H1       H      0.0124565    0.168684     0.992047     0.108 
H1       H      0.512457     0.668684     0.992047     0.108 
Cr1      Cr     0.57201      0.262909     0.34473      1.619 
Cr1      Cr     0.0720105    0.762909     0.34473      1.619 
Cr1      Cr     0.0720105    0.262909     0.84473      1.619 
Cr1      Cr     0.57201      0.762909     0.84473      1.619 
Cr2      Cr     0.70754      0.45846      0.0728004    1.35  
Cr2      Cr     0.20754      0.95846      0.0728004    1.35  
Cr2      Cr     0.20754      0.45846      0.5728       1.35  
Cr2      Cr     0.70754      0.95846      0.5728       1.35  
O3       O      0.0901799    0.18036      0.10869     -0.438 
O3       O      0.59018      0.68036      0.10869     -0.438 
O3       O      0.59018      0.18036      0.60869     -0.438 
O3       O      0.0901799    0.68036      0.60869     -0.438 
O3       O      0.69413      0.47646      0.0738998   -0.438 
O3       O      0.19413      0.97646      0.0738998   -0.438 
O3       O      0.19413      0.47646      0.5739      -0.438 
O3       O      0.69413      0.97646      0.5739      -0.438 
O2       O      0.17737      0.0507005    0.08886     -0.574 
O2       O      0.67737      0.5507       0.08886     -0.574 
O2       O      0.67737      0.0507005    0.58886     -0.574 
O2       O      0.17737      0.5507       0.58886     -0.574 
O2       O      0.72584      0.0706804    0.471219    -0.574 
O2       O      0.22584      0.57068      0.471219    -0.574 
O2       O      0.22584      0.0706804    0.971219    -0.574 
O2       O      0.72584      0.57068      0.971219    -0.574 
O2       O      0.72805      0.0452295    0.46763     -0.574 
O2       O      0.22805      0.545229     0.46763     -0.574 
O2       O      0.22805      0.0452295    0.96763     -0.574 
O2       O      0.72805      0.545229     0.96763     -0.574 
O3       O      0.57439      0.23044      0.327009    -0.438 
O3       O      0.0743904    0.73044      0.327009    -0.438 
O3       O      0.0743904    0.23044      0.827009    -0.438 
O3       O      0.57439      0.73044      0.827009    -0.438 
O2       O      0.55997      0.24692      0.33776     -0.574 
O2       O      0.0599703    0.74692      0.33776     -0.574 
O2       O      0.0599703    0.24692      0.83776     -0.574 
O2       O      0.55997      0.74692      0.83776     -0.574 
O2       O      0.52721      0.148759     0.33758     -0.574 
O2       O      0.0272097    0.648759     0.33758     -0.574 
O2       O      0.0272097    0.148759     0.83758     -0.574 
O2       O      0.52721      0.648759     0.83758     -0.574 
O2       O      0.52253      0.13451      0.35774     -0.574 
O2       O      0.0225298    0.63451      0.35774     -0.574 
O2       O      0.0225298    0.13451      0.85774     -0.574 
O2       O      0.52253      0.63451      0.85774     -0.574 
O2       O      0.60189      0.12552      0.35125     -0.574 
O2       O      0.10189      0.62552      0.35125     -0.574 
O2       O      0.10189      0.12552      0.85125     -0.574 
O2       O      0.60189      0.62552      0.85125     -0.574 
O2       O      0.59307      0.116311     0.37292     -0.574 
O2       O      0.0930696    0.616309     0.37292     -0.574 
O2       O      0.0930696    0.116311     0.87292     -0.574 
O2       O      0.59307      0.616309     0.87292     -0.574 
O3       O      0.559109     0.17195      0.44362     -0.438 
O3       O      0.0591095    0.67195      0.44362     -0.438 
O3       O      0.0591095    0.17195      0.94362     -0.438 
O3       O      0.559109     0.67195      0.94362     -0.438 
O2       O      0.60378      0.12944      0.39839     -0.574 
O2       O      0.10378      0.62944      0.39839     -0.574 
O2       O      0.10378      0.12944      0.89839     -0.574 
O2       O      0.60378      0.62944      0.89839     -0.574 
O2       O      0.52376      0.20379      0.435231    -0.574 
O2       O      0.0237597    0.70379      0.435231    -0.574 
O2       O      0.0237597    0.20379      0.935229    -0.574 
O2       O      0.52376      0.70379      0.935229    -0.574 
O3       O      0.53088      0.18055      0.43927     -0.438 
O3       O      0.0308803    0.68055      0.43927     -0.438 
O3       O      0.0308803    0.18055      0.93927     -0.438 
O3       O      0.53088      0.68055      0.93927     -0.438 
O3       O      0.49336      0.17722      0.36692     -0.438 
O3       O      0.99336      0.67722      0.36692     -0.438 
O3       O      0.99336      0.17722      0.86692     -0.438 
O3       O      0.49336      0.67722      0.86692     -0.438 
O2       O      0.50338      0.15475      0.37647     -0.574 
O2       O      0.00338026   0.65475      0.37647     -0.574 
O2       O      0.00338026   0.15475      0.87647     -0.574 
O2       O      0.50338      0.65475      0.87647     -0.574 
F1       F      0.711269     0.460869     0.0941498   -0.547 
F1       F      0.211271     0.960869     0.0941498   -0.547 
F1       F      0.211271     0.460869     0.59415     -0.547 
F1       F      0.711269     0.960869     0.59415     -0.547 
C3       C      0.10929      0.18066      0.1295      -0.058 
C3       C      0.60929      0.68066      0.1295      -0.058 
C3       C      0.60929      0.18066      0.6295      -0.058 
C3       C      0.10929      0.68066      0.6295      -0.058 
C3       C      0.188        0.00507038   0.0816303   -0.058 
C3       C      0.688        0.50507      0.0816303   -0.058 
C3       C      0.688        0.00507038   0.58163     -0.058 
C3       C      0.188        0.50507      0.58163     -0.058 
C3       C      0.1847       0.0205201    0.08506     -0.058 
C3       C      0.6847       0.52052      0.08506     -0.058 
C3       C      0.6847       0.0205201    0.58506     -0.058 
C3       C      0.1847       0.52052      0.58506     -0.058 
C3       C      0.75252      0.0469095    0.48623     -0.058 
C3       C      0.25252      0.546909     0.48623     -0.058 
C3       C      0.25252      0.0469095    0.98623     -0.058 
C3       C      0.75252      0.546909     0.98623     -0.058 
C1       C      0.72967      0.0573597    0.476        0.496 
C1       C      0.22967      0.55736      0.476        0.496 
C1       C      0.22967      0.0573597    0.976        0.496 
C1       C      0.72967      0.55736      0.976        0.496 
C2       C      0.7406       0.0573597    0.48755     -0.07  
C2       C      0.2406       0.55736      0.48755     -0.07  
C2       C      0.2406       0.0573597    0.98755     -0.07  
C2       C      0.7406       0.55736      0.98755     -0.07  
C3       C      0.74368      0.0714096    0.49506     -0.058 
C3       C      0.24368      0.57141      0.49506     -0.058 
C3       C      0.24368      0.0714096    0.99506     -0.058 
C3       C      0.74368      0.57141      0.99506     -0.058 
C3       C      0.55231      0.20923      0.32184     -0.058 
C3       C      0.0523096    0.709229     0.32184     -0.058 
C3       C      0.0523096    0.20923      0.82184     -0.058 
C3       C      0.55231      0.709229     0.82184     -0.058 
C1       C      0.5613       0.23456      0.33022      0.496 
C1       C      0.0613003    0.73456      0.33022      0.496 
C1       C      0.0613003    0.23456      0.83022      0.496 
C1       C      0.5613       0.73456      0.83022      0.496 
C2       C      0.550179     0.222589     0.33111     -0.07  
C2       C      0.0501795    0.722589     0.33111     -0.07  
C2       C      0.0501795    0.222589     0.83111     -0.07  
C2       C      0.550179     0.722589     0.83111     -0.07  
C3       C      0.53933      0.221969     0.3429      -0.058 
C3       C      0.0393298    0.721969     0.3429      -0.058 
C3       C      0.0393298    0.221969     0.8429      -0.058 
C3       C      0.53933      0.721969     0.8429      -0.058 
C3       C      0.55816      0.14347      0.342039    -0.058 
C3       C      0.0581598    0.64347      0.342039    -0.058 
C3       C      0.0581598    0.14347      0.842039    -0.058 
C3       C      0.55816      0.64347      0.842039    -0.058 
C1       C      0.53092      0.13844      0.34671      0.496 
C1       C      0.0309197    0.63844      0.34671      0.496 
C1       C      0.0309197    0.13844      0.84671      0.496 
C1       C      0.53092      0.63844      0.84671      0.496 
C2       C      0.54596      0.13504      0.34891     -0.07  
C2       C      0.0459598    0.63504      0.34891     -0.07  
C2       C      0.0459598    0.13504      0.84891     -0.07  
C2       C      0.54596      0.63504      0.84891     -0.07  
C3       C      0.5731       0.13883      0.34472     -0.058 
C3       C      0.0730997    0.63883      0.34472     -0.058 
C3       C      0.0730997    0.13883      0.84472     -0.058 
C3       C      0.5731       0.63883      0.84472     -0.058 
C1       C      0.59071      0.12309      0.3603       0.496 
C1       C      0.0907099    0.62309      0.3603       0.496 
C1       C      0.0907099    0.12309      0.8603       0.496 
C1       C      0.59071      0.62309      0.8603       0.496 
C2       C      0.57589      0.1295       0.357689    -0.07  
C2       C      0.0758904    0.6295       0.357689    -0.07  
C2       C      0.0758904    0.1295       0.857689    -0.07  
C2       C      0.57589      0.6295       0.857689    -0.07  
C3       C      0.54836      0.12746      0.36224     -0.058 
C3       C      0.0483599    0.62746      0.36224     -0.058 
C3       C      0.0483599    0.12746      0.86224     -0.058 
C3       C      0.54836      0.62746      0.86224     -0.058 
C3       C      0.5635       0.12311      0.36582     -0.058 
C3       C      0.0635002    0.62311      0.36582     -0.058 
C3       C      0.0635002    0.12311      0.865819    -0.058 
C3       C      0.5635       0.62311      0.865819    -0.058 
C3       C      0.57678      0.15471      0.42951     -0.058 
C3       C      0.0767804    0.65471      0.42951     -0.058 
C3       C      0.0767804    0.15471      0.92951     -0.058 
C3       C      0.57678      0.65471      0.92951     -0.058 
C3       C      0.58485      0.14645      0.41801     -0.058 
C3       C      0.0848496    0.64645      0.41801     -0.058 
C3       C      0.0848496    0.14645      0.91801     -0.058 
C3       C      0.58485      0.64645      0.91801     -0.058 
C3       C      0.51355      0.195709     0.40706     -0.058 
C3       C      0.0135503    0.695709     0.40706     -0.058 
C3       C      0.0135503    0.195709     0.90706     -0.058 
C3       C      0.51355      0.695709     0.90706     -0.058 
C1       C      0.52464      0.19016      0.4313       0.496 
C1       C      0.0246396    0.69016      0.4313       0.496 
C1       C      0.0246396    0.19016      0.9313       0.496 
C1       C      0.52464      0.69016      0.9313       0.496 
C2       C      0.51807      0.18518      0.41789     -0.07  
C2       C      0.0180704    0.68518      0.41789     -0.07  
C2       C      0.0180704    0.18518      0.91789     -0.07  
C2       C      0.51807      0.68518      0.91789     -0.07  
C3       C      0.50617      0.190759     0.39422     -0.058 
C3       C      0.00616976   0.690759     0.39422     -0.058 
C3       C      0.00616976   0.190759     0.89422     -0.058 
C3       C      0.50617      0.690759     0.89422     -0.058 
C1       C      0.50095      0.16918      0.37747      0.496 
C1       C      0.000949712  0.669179     0.37747      0.496 
C1       C      0.000949712  0.16918      0.87747      0.496 
C1       C      0.50095      0.669179     0.87747      0.496 
C2       C      0.50489      0.17522      0.39175     -0.07  
C2       C      0.00489034   0.67522      0.39175     -0.07  
C2       C      0.00489034   0.17522      0.89175     -0.07  
C2       C      0.50489      0.67522      0.89175     -0.07  
C3       C      0.51846      0.16968      0.41484     -0.058 
C3       C      0.0184598    0.66968      0.41484     -0.058 
C3       C      0.0184598    0.16968      0.91484     -0.058 
C3       C      0.51846      0.66968      0.91484     -0.058 
C3       C      0.51171      0.16458      0.40158     -0.058 
C3       C      0.0117105    0.66458      0.40158     -0.058 
C3       C      0.0117105    0.16458      0.90158     -0.058 
C3       C      0.51171      0.66458      0.90158     -0.058 
H1       H      0.697495     0.499673     0.0867006    0.108 
H1       H      0.197495     0.999673     0.0867006    0.108 
H1       H      0.197495     0.499673     0.586701     0.108 
H1       H      0.697495     0.999673     0.586701     0.108 
H1       H      0.191211     0.0263737    0.0933138    0.108 
H1       H      0.691211     0.526374     0.0933138    0.108 
H1       H      0.691211     0.0263737    0.593314     0.108 
H1       H      0.191211     0.526374     0.593314     0.108 
H1       H      0.565441     0.151732     0.432217     0.108 
H1       H      0.0654413    0.651732     0.432217     0.108 
H1       H      0.0654413    0.151732     0.932217     0.108 
H1       H      0.565441     0.651732     0.932217     0.108 
H1       H      0.580636     0.135871     0.414125     0.108 
H1       H      0.0806355    0.635871     0.414125     0.108 
H1       H      0.0806355    0.135871     0.914125     0.108 
H1       H      0.580636     0.635871     0.914125     0.108 
H1       H      0.0976246    0.1789       0.131832     0.108 
H1       H      0.597625     0.6789       0.131832     0.108 
H1       H      0.597625     0.1789       0.631832     0.108 
H1       H      0.0976246    0.6789       0.631832     0.108 
H1       H      0.752846     0.0393005    0.476915     0.108 
H1       H      0.252846     0.539301     0.476915     0.108 
H1       H      0.252846     0.0393005    0.976915     0.108 
H1       H      0.752846     0.539301     0.976915     0.108 
H1       H      0.523813     0.162162     0.42256      0.108 
H1       H      0.0238126    0.662162     0.42256      0.108 
H1       H      0.0238126    0.162162     0.92256      0.108 
H1       H      0.523813     0.662162     0.92256      0.108 
H1       H      0.511724     0.152826     0.39895      0.108 
H1       H      0.011724     0.652826     0.39895      0.108 
H1       H      0.011724     0.152826     0.89895      0.108 
H1       H      0.511724     0.652826     0.89895      0.108 
H1       H      0.515797     0.207413     0.40874      0.108 
H1       H      0.0157974    0.707413     0.40874      0.108 
H1       H      0.0157974    0.207413     0.90874      0.108 
H1       H      0.515797     0.707413     0.90874      0.108 
H1       H      0.501598     0.198741     0.386449     0.108 
H1       H      0.00159786   0.698741     0.386449     0.108 
H1       H      0.00159786   0.198741     0.886449     0.108 
H1       H      0.501598     0.698741     0.886449     0.108 
H1       H      0.562261     0.208052     0.31518      0.108 
H1       H      0.0622613    0.708052     0.31518      0.108 
H1       H      0.0622613    0.208052     0.81518      0.108 
H1       H      0.562261     0.708052     0.81518      0.108 
H1       H      0.539666     0.230042     0.351816     0.108 
H1       H      0.0396663    0.730042     0.351816     0.108 
H1       H      0.0396663    0.230042     0.851816     0.108 
H1       H      0.539666     0.730042     0.851816     0.108 
H1       H      0.539098     0.125009     0.369518     0.108 
H1       H      0.039098     0.625009     0.369518     0.108 
H1       H      0.039098     0.125009     0.869518     0.108 
H1       H      0.539098     0.625009     0.869518     0.108 
H1       H      0.565532     0.115095     0.37456      0.108 
H1       H      0.0655324    0.615095     0.37456      0.108 
H1       H      0.0655324    0.115095     0.87456      0.108 
H1       H      0.565532     0.615095     0.87456      0.108 
H1       H      0.555729     0.153        0.335099     0.108 
H1       H      0.0557292    0.653        0.335099     0.108 
H1       H      0.0557292    0.153        0.835099     0.108 
H1       H      0.555729     0.653        0.835099     0.108 
H1       H      0.581891     0.142242     0.337247     0.108 
H1       H      0.0818913    0.642242     0.337247     0.108 
H1       H      0.0818913    0.142242     0.837247     0.108 
H1       H      0.581891     0.642242     0.837247     0.108 
H1       H      0.737544     0.0813152    0.492047     0.108 
H1       H      0.237544     0.581315     0.492047     0.108 
H1       H      0.237544     0.0813152    0.992047     0.108 
H1       H      0.737544     0.581315     0.992047     0.108 
Cr1      Cr     0.17799      0.262909     0.40527      1.619 
Cr1      Cr     0.67799      0.762909     0.40527      1.619 
Cr1      Cr     0.67799      0.262909     0.90527      1.619 
Cr1      Cr     0.17799      0.762909     0.90527      1.619 
Cr2      Cr     0.54246      0.45846      0.1772       1.35  
Cr2      Cr     0.0424603    0.95846      0.1772       1.35  
Cr2      Cr     0.0424603    0.45846      0.6772       1.35  
Cr2      Cr     0.54246      0.95846      0.6772       1.35  
O2       O      0.15982      0.18036      0.14131     -0.574 
O2       O      0.65982      0.68036      0.14131     -0.574 
O2       O      0.65982      0.18036      0.64131     -0.574 
O2       O      0.15982      0.68036      0.64131     -0.574 
O3       O      0.55587      0.47646      0.1761      -0.438 
O3       O      0.0558699    0.97646      0.1761      -0.438 
O3       O      0.0558699    0.47646      0.6761      -0.438 
O3       O      0.55587      0.97646      0.6761      -0.438 
O2       O      0.0726305    0.0507005    0.161139    -0.574 
O2       O      0.572629     0.5507       0.161139    -0.574 
O2       O      0.572629     0.0507005    0.661139    -0.574 
O2       O      0.0726305    0.5507       0.661139    -0.574 
O2       O      0.0241603    0.0706804    0.27878     -0.574 
O2       O      0.52416      0.57068      0.27878     -0.574 
O2       O      0.52416      0.0706804    0.77878     -0.574 
O2       O      0.0241603    0.57068      0.77878     -0.574 
O2       O      0.0219503    0.0452295    0.28237     -0.574 
O2       O      0.52195      0.545229     0.28237     -0.574 
O2       O      0.52195      0.0452295    0.78237     -0.574 
O2       O      0.0219503    0.545229     0.78237     -0.574 
O3       O      0.17561      0.23044      0.42299     -0.438 
O3       O      0.67561      0.73044      0.42299     -0.438 
O3       O      0.67561      0.23044      0.92299     -0.438 
O3       O      0.17561      0.73044      0.92299     -0.438 
O2       O      0.19003      0.24692      0.41224     -0.574 
O2       O      0.69003      0.74692      0.41224     -0.574 
O2       O      0.69003      0.24692      0.912239    -0.574 
O2       O      0.19003      0.74692      0.912239    -0.574 
O2       O      0.22279      0.148759     0.412419    -0.574 
O2       O      0.72279      0.648759     0.412419    -0.574 
O2       O      0.72279      0.148759     0.912419    -0.574 
O2       O      0.22279      0.648759     0.912419    -0.574 
O3       O      0.22747      0.13451      0.392259    -0.438 
O3       O      0.72747      0.63451      0.392259    -0.438 
O3       O      0.72747      0.13451      0.892259    -0.438 
O3       O      0.22747      0.63451      0.892259    -0.438 
O2       O      0.14811      0.12552      0.39875     -0.574 
O2       O      0.64811      0.62552      0.39875     -0.574 
O2       O      0.64811      0.12552      0.89875     -0.574 
O2       O      0.14811      0.62552      0.89875     -0.574 
O2       O      0.15693      0.116311     0.37708     -0.574 
O2       O      0.65693      0.616309     0.37708     -0.574 
O2       O      0.65693      0.116311     0.87708     -0.574 
O2       O      0.15693      0.616309     0.87708     -0.574 
O2       O      0.19089      0.17195      0.30638     -0.574 
O2       O      0.69089      0.67195      0.30638     -0.574 
O2       O      0.69089      0.17195      0.80638     -0.574 
O2       O      0.19089      0.67195      0.80638     -0.574 
O2       O      0.14622      0.12944      0.35161     -0.574 
O2       O      0.64622      0.62944      0.35161     -0.574 
O2       O      0.64622      0.12944      0.85161     -0.574 
O2       O      0.14622      0.62944      0.85161     -0.574 
O3       O      0.22624      0.20379      0.31477     -0.438 
O3       O      0.72624      0.70379      0.31477     -0.438 
O3       O      0.72624      0.20379      0.81477     -0.438 
O3       O      0.22624      0.70379      0.81477     -0.438 
O2       O      0.21912      0.18055      0.31073     -0.574 
O2       O      0.71912      0.68055      0.31073     -0.574 
O2       O      0.71912      0.18055      0.81073     -0.574 
O2       O      0.21912      0.68055      0.81073     -0.574 
O2       O      0.25664      0.17722      0.38308     -0.574 
O2       O      0.75664      0.67722      0.38308     -0.574 
O2       O      0.75664      0.17722      0.88308     -0.574 
O2       O      0.25664      0.67722      0.88308     -0.574 
O3       O      0.24662      0.15475      0.37353     -0.438 
O3       O      0.74662      0.65475      0.37353     -0.438 
O3       O      0.74662      0.15475      0.87353     -0.438 
O3       O      0.24662      0.65475      0.87353     -0.438 
F1       F      0.53873      0.460869     0.15585     -0.547 
F1       F      0.03873      0.960869     0.15585     -0.547 
F1       F      0.03873      0.460869     0.65585     -0.547 
F1       F      0.53873      0.960869     0.65585     -0.547 
C3       C      0.14071      0.18066      0.1205      -0.058 
C3       C      0.64071      0.68066      0.1205      -0.058 
C3       C      0.64071      0.18066      0.6205      -0.058 
C3       C      0.14071      0.68066      0.6205      -0.058 
C3       C      0.0620002    0.00507038   0.16837     -0.058 
C3       C      0.562        0.50507      0.16837     -0.058 
C3       C      0.562        0.00507038   0.66837     -0.058 
C3       C      0.0620002    0.50507      0.66837     -0.058 
C3       C      0.0652995    0.0205201    0.164941    -0.058 
C3       C      0.565299     0.52052      0.164941    -0.058 
C3       C      0.565299     0.0205201    0.664939    -0.058 
C3       C      0.0652995    0.52052      0.664939    -0.058 
C3       C      0.997479     0.0469095    0.26377     -0.058 
C3       C      0.497479     0.546909     0.26377     -0.058 
C3       C      0.497479     0.0469095    0.76377     -0.058 
C3       C      0.997479     0.546909     0.76377     -0.058 
C1       C      0.0203299    0.0573597    0.274        0.496 
C1       C      0.52033      0.55736      0.274        0.496 
C1       C      0.52033      0.0573597    0.774        0.496 
C1       C      0.0203299    0.55736      0.774        0.496 
C2       C      0.00940035   0.0573597    0.26245     -0.07  
C2       C      0.5094       0.55736      0.26245     -0.07  
C2       C      0.5094       0.0573597    0.76245     -0.07  
C2       C      0.00940035   0.55736      0.76245     -0.07  
C3       C      0.00632054   0.0714096    0.25494     -0.058 
C3       C      0.506319     0.57141      0.25494     -0.058 
C3       C      0.506319     0.0714096    0.75494     -0.058 
C3       C      0.00632054   0.57141      0.75494     -0.058 
C3       C      0.19769      0.20923      0.428159    -0.058 
C3       C      0.69769      0.709229     0.428159    -0.058 
C3       C      0.69769      0.20923      0.928159    -0.058 
C3       C      0.19769      0.709229     0.928159    -0.058 
C1       C      0.1887       0.23456      0.41978      0.496 
C1       C      0.6887       0.73456      0.41978      0.496 
C1       C      0.6887       0.23456      0.91978      0.496 
C1       C      0.1887       0.73456      0.91978      0.496 
C2       C      0.19982      0.222589     0.41889     -0.07  
C2       C      0.69982      0.722589     0.41889     -0.07  
C2       C      0.69982      0.222589     0.91889     -0.07  
C2       C      0.19982      0.722589     0.91889     -0.07  
C3       C      0.21067      0.221969     0.4071      -0.058 
C3       C      0.71067      0.721969     0.4071      -0.058 
C3       C      0.71067      0.221969     0.9071      -0.058 
C3       C      0.21067      0.721969     0.9071      -0.058 
C3       C      0.19184      0.14347      0.40796     -0.058 
C3       C      0.69184      0.64347      0.40796     -0.058 
C3       C      0.69184      0.14347      0.90796     -0.058 
C3       C      0.19184      0.64347      0.90796     -0.058 
C1       C      0.21908      0.13844      0.40329      0.496 
C1       C      0.71908      0.63844      0.40329      0.496 
C1       C      0.71908      0.13844      0.90329      0.496 
C1       C      0.21908      0.63844      0.90329      0.496 
C2       C      0.20404      0.13504      0.40109     -0.07  
C2       C      0.70404      0.63504      0.40109     -0.07  
C2       C      0.70404      0.13504      0.90109     -0.07  
C2       C      0.20404      0.63504      0.90109     -0.07  
C3       C      0.1769       0.13883      0.40528     -0.058 
C3       C      0.6769       0.63883      0.40528     -0.058 
C3       C      0.6769       0.13883      0.90528     -0.058 
C3       C      0.1769       0.63883      0.90528     -0.058 
C1       C      0.15929      0.12309      0.389699     0.496 
C1       C      0.65929      0.62309      0.389699     0.496 
C1       C      0.65929      0.12309      0.889699     0.496 
C1       C      0.15929      0.62309      0.889699     0.496 
C2       C      0.17411      0.1295       0.39231     -0.07  
C2       C      0.67411      0.6295       0.39231     -0.07  
C2       C      0.67411      0.1295       0.89231     -0.07  
C2       C      0.17411      0.6295       0.89231     -0.07  
C3       C      0.201639     0.12746      0.38776     -0.058 
C3       C      0.701639     0.62746      0.38776     -0.058 
C3       C      0.701639     0.12746      0.88776     -0.058 
C3       C      0.201639     0.62746      0.88776     -0.058 
C3       C      0.1865       0.12311      0.38418     -0.058 
C3       C      0.6865       0.62311      0.38418     -0.058 
C3       C      0.6865       0.12311      0.88418     -0.058 
C3       C      0.1865       0.62311      0.88418     -0.058 
C3       C      0.17322      0.15471      0.32049     -0.058 
C3       C      0.67322      0.65471      0.32049     -0.058 
C3       C      0.67322      0.15471      0.82049     -0.058 
C3       C      0.17322      0.65471      0.82049     -0.058 
C3       C      0.16515      0.14645      0.33199     -0.058 
C3       C      0.66515      0.64645      0.33199     -0.058 
C3       C      0.66515      0.14645      0.83199     -0.058 
C3       C      0.16515      0.64645      0.83199     -0.058 
C3       C      0.23645      0.195709     0.34294     -0.058 
C3       C      0.73645      0.695709     0.34294     -0.058 
C3       C      0.73645      0.195709     0.84294     -0.058 
C3       C      0.23645      0.695709     0.84294     -0.058 
C1       C      0.22536      0.19016      0.318699     0.496 
C1       C      0.72536      0.69016      0.318699     0.496 
C1       C      0.72536      0.19016      0.818699     0.496 
C1       C      0.22536      0.69016      0.818699     0.496 
C2       C      0.23193      0.18518      0.33211     -0.07  
C2       C      0.73193      0.68518      0.33211     -0.07  
C2       C      0.73193      0.18518      0.83211     -0.07  
C2       C      0.23193      0.68518      0.83211     -0.07  
C3       C      0.24383      0.190759     0.35578     -0.058 
C3       C      0.74383      0.690759     0.35578     -0.058 
C3       C      0.74383      0.190759     0.85578     -0.058 
C3       C      0.24383      0.690759     0.85578     -0.058 
C1       C      0.24905      0.16918      0.37253      0.496 
C1       C      0.74905      0.669179     0.37253      0.496 
C1       C      0.74905      0.16918      0.87253      0.496 
C1       C      0.24905      0.669179     0.87253      0.496 
C2       C      0.24511      0.17522      0.35825     -0.07  
C2       C      0.74511      0.67522      0.35825     -0.07  
C2       C      0.74511      0.17522      0.85825     -0.07  
C2       C      0.24511      0.67522      0.85825     -0.07  
C3       C      0.23154      0.16968      0.33516     -0.058 
C3       C      0.73154      0.66968      0.33516     -0.058 
C3       C      0.73154      0.16968      0.83516     -0.058 
C3       C      0.23154      0.66968      0.83516     -0.058 
C3       C      0.23829      0.16458      0.34842     -0.058 
C3       C      0.73829      0.66458      0.34842     -0.058 
C3       C      0.73829      0.16458      0.84842     -0.058 
C3       C      0.23829      0.66458      0.84842     -0.058 
H1       H      0.552505     0.499673     0.1633       0.108 
H1       H      0.0525054    0.999673     0.1633       0.108 
H1       H      0.0525054    0.499673     0.6633       0.108 
H1       H      0.552505     0.999673     0.6633       0.108 
H1       H      0.0587888    0.0263737    0.156687     0.108 
H1       H      0.558789     0.526374     0.156687     0.108 
H1       H      0.558789     0.0263737    0.656687     0.108 
H1       H      0.0587888    0.526374     0.656687     0.108 
H1       H      0.184559     0.151732     0.317782     0.108 
H1       H      0.684559     0.651732     0.317782     0.108 
H1       H      0.684559     0.151732     0.817782     0.108 
H1       H      0.184559     0.651732     0.817782     0.108 
H1       H      0.169365     0.135871     0.335875     0.108 
H1       H      0.669365     0.635871     0.335875     0.108 
H1       H      0.669365     0.135871     0.835875     0.108 
H1       H      0.169365     0.635871     0.835875     0.108 
H1       H      0.152376     0.1789       0.118168     0.108 
H1       H      0.652376     0.6789       0.118168     0.108 
H1       H      0.652376     0.1789       0.618168     0.108 
H1       H      0.152376     0.6789       0.618168     0.108 
H1       H      0.997154     0.0393005    0.273085     0.108 
H1       H      0.497154     0.539301     0.273085     0.108 
H1       H      0.497154     0.0393005    0.773084     0.108 
H1       H      0.997154     0.539301     0.773084     0.108 
H1       H      0.226188     0.162162     0.327439     0.108 
H1       H      0.726188     0.662162     0.327439     0.108 
H1       H      0.726188     0.162162     0.827439     0.108 
H1       H      0.226188     0.662162     0.827439     0.108 
H1       H      0.238275     0.152826     0.35105      0.108 
H1       H      0.738275     0.652826     0.35105      0.108 
H1       H      0.738275     0.152826     0.85105      0.108 
H1       H      0.238275     0.652826     0.85105      0.108 
H1       H      0.234202     0.207413     0.34126      0.108 
H1       H      0.734202     0.707413     0.34126      0.108 
H1       H      0.734202     0.207413     0.84126      0.108 
H1       H      0.234202     0.707413     0.84126      0.108 
H1       H      0.248402     0.198741     0.363551     0.108 
H1       H      0.748402     0.698741     0.363551     0.108 
H1       H      0.748402     0.198741     0.863551     0.108 
H1       H      0.248402     0.698741     0.863551     0.108 
H1       H      0.187739     0.208052     0.43482      0.108 
H1       H      0.687738     0.708052     0.43482      0.108 
H1       H      0.687738     0.208052     0.93482      0.108 
H1       H      0.187739     0.708052     0.93482      0.108 
H1       H      0.210333     0.230042     0.398184     0.108 
H1       H      0.710333     0.730042     0.398184     0.108 
H1       H      0.710333     0.230042     0.898184     0.108 
H1       H      0.210333     0.730042     0.898184     0.108 
H1       H      0.210901     0.125009     0.380481     0.108 
H1       H      0.710901     0.625009     0.380481     0.108 
H1       H      0.710901     0.125009     0.880481     0.108 
H1       H      0.210901     0.625009     0.880481     0.108 
H1       H      0.184467     0.115095     0.375439     0.108 
H1       H      0.684467     0.615095     0.375439     0.108 
H1       H      0.684467     0.115095     0.875439     0.108 
H1       H      0.184467     0.615095     0.875439     0.108 
H1       H      0.194271     0.153        0.414902     0.108 
H1       H      0.69427      0.653        0.414902     0.108 
H1       H      0.69427      0.153        0.914902     0.108 
H1       H      0.194271     0.653        0.914902     0.108 
H1       H      0.168108     0.142242     0.412752     0.108 
H1       H      0.668108     0.642242     0.412752     0.108 
H1       H      0.668108     0.142242     0.912752     0.108 
H1       H      0.168108     0.642242     0.912752     0.108 
H1       H      0.0124565    0.0813152    0.257953     0.108 
H1       H      0.512457     0.581315     0.257953     0.108 
H1       H      0.512457     0.0813152    0.757953     0.108 
H1       H      0.0124565    0.581315     0.757953     0.108 
Cr1      Cr     0.82201      0.15527      0.01291      1.619 
Cr1      Cr     0.32201      0.65527      0.01291      1.619 
Cr1      Cr     0.32201      0.15527      0.51291      1.619 
Cr1      Cr     0.82201      0.65527      0.51291      1.619 
Cr2      Cr     0.95754      0.4272       0.20846      1.35  
Cr2      Cr     0.45754      0.9272       0.20846      1.35  
Cr2      Cr     0.45754      0.4272       0.70846      1.35  
Cr2      Cr     0.95754      0.9272       0.70846      1.35  
O3       O      0.840179     0.39131      0.43036     -0.438 
O3       O      0.34018      0.89131      0.43036     -0.438 
O3       O      0.34018      0.39131      0.93036     -0.438 
O3       O      0.840179     0.89131      0.93036     -0.438 
O3       O      0.94413      0.4261       0.22646     -0.438 
O3       O      0.44413      0.9261       0.22646     -0.438 
O3       O      0.44413      0.4261       0.72646     -0.438 
O3       O      0.94413      0.9261       0.72646     -0.438 
O2       O      0.927369     0.41114      0.3007      -0.574 
O2       O      0.427369     0.91114      0.3007      -0.574 
O2       O      0.427369     0.41114      0.8007      -0.574 
O2       O      0.927369     0.91114      0.8007      -0.574 
O2       O      0.47584      0.0287794    0.32068     -0.574 
O2       O      0.97584      0.528779     0.32068     -0.574 
O2       O      0.97584      0.0287794    0.82068     -0.574 
O2       O      0.47584      0.528779     0.82068     -0.574 
O3       O      0.47805      0.0323701    0.29523     -0.438 
O3       O      0.97805      0.53237      0.29523     -0.438 
O3       O      0.97805      0.0323701    0.79523     -0.438 
O3       O      0.47805      0.53237      0.79523     -0.438 
O2       O      0.32439      0.172989     0.48044     -0.574 
O2       O      0.82439      0.672989     0.48044     -0.574 
O2       O      0.82439      0.172989     0.98044     -0.574 
O2       O      0.32439      0.672989     0.98044     -0.574 
O2       O      0.30997      0.16224      0.49692     -0.574 
O2       O      0.80997      0.66224      0.49692     -0.574 
O2       O      0.80997      0.16224      0.99692     -0.574 
O2       O      0.30997      0.66224      0.99692     -0.574 
O2       O      0.27721      0.16242      0.39876     -0.574 
O2       O      0.77721      0.66242      0.39876     -0.574 
O2       O      0.77721      0.16242      0.89876     -0.574 
O2       O      0.27721      0.66242      0.89876     -0.574 
O3       O      0.27253      0.14226      0.38451     -0.438 
O3       O      0.77253      0.64226      0.38451     -0.438 
O3       O      0.77253      0.14226      0.88451     -0.438 
O3       O      0.27253      0.64226      0.88451     -0.438 
O3       O      0.35189      0.14875      0.37552     -0.438 
O3       O      0.85189      0.64875      0.37552     -0.438 
O3       O      0.85189      0.14875      0.87552     -0.438 
O3       O      0.35189      0.64875      0.87552     -0.438 
O2       O      0.34307      0.12708      0.36631     -0.574 
O2       O      0.84307      0.62708      0.36631     -0.574 
O2       O      0.84307      0.12708      0.86631     -0.574 
O2       O      0.34307      0.62708      0.86631     -0.574 
O2       O      0.30911      0.0563796    0.42195     -0.574 
O2       O      0.80911      0.55638      0.42195     -0.574 
O2       O      0.80911      0.0563796    0.92195     -0.574 
O2       O      0.30911      0.55638      0.92195     -0.574 
O2       O      0.35378      0.10161      0.379439    -0.574 
O2       O      0.85378      0.60161      0.379439    -0.574 
O2       O      0.85378      0.10161      0.879439    -0.574 
O2       O      0.35378      0.60161      0.879439    -0.574 
O3       O      0.27376      0.0647695    0.45379     -0.438 
O3       O      0.77376      0.564769     0.45379     -0.438 
O3       O      0.77376      0.0647695    0.95379     -0.438 
O3       O      0.27376      0.564769     0.95379     -0.438 
O2       O      0.28088      0.0607298    0.430549    -0.574 
O2       O      0.78088      0.56073      0.430549    -0.574 
O2       O      0.78088      0.0607298    0.930549    -0.574 
O2       O      0.28088      0.56073      0.930549    -0.574 
O2       O      0.24336      0.13308      0.42722     -0.574 
O2       O      0.74336      0.63308      0.42722     -0.574 
O2       O      0.74336      0.13308      0.92722     -0.574 
O2       O      0.24336      0.63308      0.92722     -0.574 
O3       O      0.25338      0.12353      0.40475     -0.438 
O3       O      0.75338      0.62353      0.40475     -0.438 
O3       O      0.75338      0.12353      0.90475     -0.438 
O3       O      0.25338      0.62353      0.90475     -0.438 
F1       F      0.96127      0.40585      0.21087     -0.547 
F1       F      0.46127      0.90585      0.21087     -0.547 
F1       F      0.46127      0.40585      0.71087     -0.547 
F1       F      0.96127      0.90585      0.71087     -0.547 
C3       C      0.85929      0.3705       0.43066     -0.058 
C3       C      0.35929      0.8705       0.43066     -0.058 
C3       C      0.35929      0.3705       0.93066     -0.058 
C3       C      0.85929      0.8705       0.93066     -0.058 
C3       C      0.938        0.41837      0.25507     -0.058 
C3       C      0.438        0.91837      0.25507     -0.058 
C3       C      0.438        0.41837      0.75507     -0.058 
C3       C      0.938        0.91837      0.75507     -0.058 
C3       C      0.934699     0.41494      0.27052     -0.058 
C3       C      0.434701     0.91494      0.27052     -0.058 
C3       C      0.434701     0.41494      0.77052     -0.058 
C3       C      0.934699     0.91494      0.77052     -0.058 
C3       C      0.502519     0.0137697    0.29691     -0.058 
C3       C      0.00252056   0.51377      0.29691     -0.058 
C3       C      0.00252056   0.0137697    0.79691     -0.058 
C3       C      0.502519     0.51377      0.79691     -0.058 
C1       C      0.47967      0.0240005    0.30736      0.496 
C1       C      0.97967      0.523999     0.30736      0.496 
C1       C      0.97967      0.0240005    0.80736      0.496 
C1       C      0.47967      0.523999     0.80736      0.496 
C2       C      0.4906       0.0124498    0.30736     -0.07  
C2       C      0.9906       0.51245      0.30736     -0.07  
C2       C      0.9906       0.0124498    0.80736     -0.07  
C2       C      0.4906       0.51245      0.80736     -0.07  
C3       C      0.493679     0.00493986   0.32141     -0.058 
C3       C      0.993679     0.50494      0.32141     -0.058 
C3       C      0.993679     0.00493986   0.82141     -0.058 
C3       C      0.493679     0.50494      0.82141     -0.058 
C3       C      0.30231      0.17816      0.45923     -0.058 
C3       C      0.80231      0.67816      0.45923     -0.058 
C3       C      0.80231      0.17816      0.95923     -0.058 
C3       C      0.30231      0.67816      0.95923     -0.058 
C1       C      0.3113       0.16978      0.48456      0.496 
C1       C      0.8113       0.66978      0.48456      0.496 
C1       C      0.8113       0.16978      0.984559     0.496 
C1       C      0.3113       0.66978      0.984559     0.496 
C2       C      0.30018      0.16889      0.47259     -0.07  
C2       C      0.80018      0.66889      0.47259     -0.07  
C2       C      0.80018      0.16889      0.97259     -0.07  
C2       C      0.30018      0.66889      0.97259     -0.07  
C3       C      0.28933      0.1571       0.47197     -0.058 
C3       C      0.78933      0.6571       0.47197     -0.058 
C3       C      0.78933      0.1571       0.97197     -0.058 
C3       C      0.28933      0.6571       0.97197     -0.058 
C3       C      0.30816      0.157959     0.39347     -0.058 
C3       C      0.80816      0.657959     0.39347     -0.058 
C3       C      0.80816      0.157959     0.89347     -0.058 
C3       C      0.30816      0.657959     0.89347     -0.058 
C1       C      0.28092      0.15329      0.38844      0.496 
C1       C      0.78092      0.65329      0.38844      0.496 
C1       C      0.78092      0.15329      0.88844      0.496 
C1       C      0.28092      0.65329      0.88844      0.496 
C2       C      0.29596      0.15109      0.38504     -0.07  
C2       C      0.79596      0.65109      0.38504     -0.07  
C2       C      0.79596      0.15109      0.88504     -0.07  
C2       C      0.29596      0.65109      0.88504     -0.07  
C3       C      0.3231       0.15528      0.38883     -0.058 
C3       C      0.8231       0.65528      0.38883     -0.058 
C3       C      0.8231       0.15528      0.88883     -0.058 
C3       C      0.3231       0.65528      0.88883     -0.058 
C1       C      0.34071      0.1397       0.37309      0.496 
C1       C      0.840709     0.6397       0.37309      0.496 
C1       C      0.840709     0.1397       0.87309      0.496 
C1       C      0.34071      0.6397       0.87309      0.496 
C2       C      0.32589      0.142309     0.3795      -0.07  
C2       C      0.82589      0.642309     0.3795      -0.07  
C2       C      0.82589      0.142309     0.8795      -0.07  
C2       C      0.32589      0.642309     0.8795      -0.07  
C3       C      0.298361     0.13776      0.37746     -0.058 
C3       C      0.798359     0.63776      0.37746     -0.058 
C3       C      0.798359     0.13776      0.87746     -0.058 
C3       C      0.298361     0.63776      0.87746     -0.058 
C3       C      0.3135       0.13418      0.37311     -0.058 
C3       C      0.8135       0.63418      0.37311     -0.058 
C3       C      0.8135       0.13418      0.87311     -0.058 
C3       C      0.3135       0.63418      0.87311     -0.058 
C3       C      0.32678      0.0704903    0.40471     -0.058 
C3       C      0.82678      0.57049      0.40471     -0.058 
C3       C      0.82678      0.0704903    0.90471     -0.058 
C3       C      0.32678      0.57049      0.90471     -0.058 
C3       C      0.33485      0.0819903    0.39645     -0.058 
C3       C      0.83485      0.58199      0.39645     -0.058 
C3       C      0.83485      0.0819903    0.89645     -0.058 
C3       C      0.33485      0.58199      0.89645     -0.058 
C3       C      0.26355      0.0929402    0.44571     -0.058 
C3       C      0.76355      0.59294      0.44571     -0.058 
C3       C      0.76355      0.0929402    0.94571     -0.058 
C3       C      0.26355      0.59294      0.94571     -0.058 
C1       C      0.27464      0.0687       0.44016      0.496 
C1       C      0.77464      0.5687       0.44016      0.496 
C1       C      0.77464      0.0687       0.94016      0.496 
C1       C      0.27464      0.5687       0.94016      0.496 
C2       C      0.26807      0.0821096    0.43518     -0.07  
C2       C      0.76807      0.58211      0.43518     -0.07  
C2       C      0.76807      0.0821096    0.93518     -0.07  
C2       C      0.26807      0.58211      0.93518     -0.07  
C3       C      0.25617      0.10578      0.44076     -0.058 
C3       C      0.75617      0.60578      0.44076     -0.058 
C3       C      0.75617      0.10578      0.94076     -0.058 
C3       C      0.25617      0.60578      0.94076     -0.058 
C1       C      0.25095      0.12253      0.41918      0.496 
C1       C      0.75095      0.62253      0.41918      0.496 
C1       C      0.75095      0.12253      0.91918      0.496 
C1       C      0.25095      0.62253      0.91918      0.496 
C2       C      0.25489      0.10825      0.42522     -0.07  
C2       C      0.75489      0.60825      0.42522     -0.07  
C2       C      0.75489      0.10825      0.92522     -0.07  
C2       C      0.25489      0.60825      0.92522     -0.07  
C3       C      0.26846      0.0851602    0.41968     -0.058 
C3       C      0.76846      0.58516      0.41968     -0.058 
C3       C      0.76846      0.0851602    0.91968     -0.058 
C3       C      0.26846      0.58516      0.91968     -0.058 
C3       C      0.26171      0.0984201    0.41458     -0.058 
C3       C      0.76171      0.59842      0.41458     -0.058 
C3       C      0.76171      0.0984201    0.91458     -0.058 
C3       C      0.26171      0.59842      0.91458     -0.058 
H1       H      0.947495     0.413299     0.249672     0.108 
H1       H      0.447495     0.913299     0.249672     0.108 
H1       H      0.447495     0.413299     0.749672     0.108 
H1       H      0.947495     0.913299     0.749672     0.108 
H1       H      0.94121      0.406686     0.276373     0.108 
H1       H      0.44121      0.906686     0.276373     0.108 
H1       H      0.44121      0.406686     0.776373     0.108 
H1       H      0.94121      0.906686     0.776373     0.108 
H1       H      0.315441     0.0677829    0.401732     0.108 
H1       H      0.815441     0.567783     0.401732     0.108 
H1       H      0.815441     0.0677829    0.901732     0.108 
H1       H      0.315441     0.567783     0.901732     0.108 
H1       H      0.330635     0.0858747    0.385871     0.108 
H1       H      0.830635     0.585875     0.385871     0.108 
H1       H      0.830635     0.0858747    0.885871     0.108 
H1       H      0.330635     0.585875     0.885871     0.108 
H1       H      0.847624     0.368168     0.428901     0.108 
H1       H      0.347624     0.868168     0.428901     0.108 
H1       H      0.347624     0.368168     0.928901     0.108 
H1       H      0.847624     0.868168     0.928901     0.108 
H1       H      0.502846     0.0230845    0.289301     0.108 
H1       H      0.00284576   0.523085     0.289301     0.108 
H1       H      0.00284576   0.0230845    0.789301     0.108 
H1       H      0.502846     0.523085     0.789301     0.108 
H1       H      0.273812     0.0774398    0.412162     0.108 
H1       H      0.773812     0.57744      0.412162     0.108 
H1       H      0.773812     0.0774398    0.912162     0.108 
H1       H      0.273812     0.57744      0.912162     0.108 
H1       H      0.261723     0.10105      0.402826     0.108 
H1       H      0.761723     0.60105      0.402826     0.108 
H1       H      0.761723     0.10105      0.902826     0.108 
H1       H      0.261723     0.60105      0.902826     0.108 
H1       H      0.265798     0.091259     0.457414     0.108 
H1       H      0.765797     0.591259     0.457414     0.108 
H1       H      0.765797     0.091259     0.957414     0.108 
H1       H      0.265798     0.591259     0.957414     0.108 
H1       H      0.251598     0.113551     0.448741     0.108 
H1       H      0.751598     0.613551     0.448741     0.108 
H1       H      0.751598     0.113551     0.948741     0.108 
H1       H      0.251598     0.613551     0.948741     0.108 
H1       H      0.312261     0.18482      0.458053     0.108 
H1       H      0.812261     0.684819     0.458053     0.108 
H1       H      0.812261     0.18482      0.958053     0.108 
H1       H      0.312261     0.684819     0.958053     0.108 
H1       H      0.289666     0.148184     0.480043     0.108 
H1       H      0.789666     0.648184     0.480043     0.108 
H1       H      0.789666     0.148184     0.980043     0.108 
H1       H      0.289666     0.648184     0.980043     0.108 
H1       H      0.289099     0.130481     0.375009     0.108 
H1       H      0.789099     0.630481     0.375009     0.108 
H1       H      0.789099     0.130481     0.875009     0.108 
H1       H      0.289099     0.630481     0.875009     0.108 
H1       H      0.315533     0.12544      0.365095     0.108 
H1       H      0.815533     0.62544      0.365095     0.108 
H1       H      0.815533     0.12544      0.865095     0.108 
H1       H      0.315533     0.62544      0.865095     0.108 
H1       H      0.305729     0.164901     0.403        0.108 
H1       H      0.805729     0.664901     0.403        0.108 
H1       H      0.805729     0.164901     0.903        0.108 
H1       H      0.305729     0.664901     0.903        0.108 
H1       H      0.331891     0.162753     0.392241     0.108 
H1       H      0.831891     0.662753     0.392241     0.108 
H1       H      0.831891     0.162753     0.892241     0.108 
H1       H      0.331891     0.662753     0.892241     0.108 
H1       H      0.487543     0.00795328   0.331316     0.108 
H1       H      0.987543     0.507953     0.331316     0.108 
H1       H      0.987543     0.00795328   0.831316     0.108 
H1       H      0.487543     0.507953     0.831316     0.108 
Cr2      Cr     0.42799      0.0947304    0.01291      1.35  
Cr2      Cr     0.92799      0.59473      0.01291      1.35  
Cr2      Cr     0.92799      0.0947304    0.51291      1.35  
Cr2      Cr     0.42799      0.59473      0.51291      1.35  
Cr1      Cr     0.79246      0.3228       0.20846      1.619 
Cr1      Cr     0.29246      0.8228       0.20846      1.619 
Cr1      Cr     0.29246      0.3228       0.70846      1.619 
Cr1      Cr     0.79246      0.8228       0.70846      1.619 
O2       O      0.90982      0.35869      0.43036     -0.574 
O2       O      0.40982      0.85869      0.43036     -0.574 
O2       O      0.40982      0.35869      0.93036     -0.574 
O2       O      0.90982      0.85869      0.93036     -0.574 
O2       O      0.80587      0.3239       0.22646     -0.574 
O2       O      0.30587      0.8239       0.22646     -0.574 
O2       O      0.30587      0.3239       0.72646     -0.574 
O2       O      0.80587      0.8239       0.72646     -0.574 
O2       O      0.82263      0.338859     0.3007      -0.574 
O2       O      0.32263      0.838859     0.3007      -0.574 
O2       O      0.32263      0.338859     0.8007      -0.574 
O2       O      0.82263      0.838859     0.8007      -0.574 
O3       O      0.77416      0.22122      0.32068     -0.438 
O3       O      0.27416      0.72122      0.32068     -0.438 
O3       O      0.27416      0.22122      0.82068     -0.438 
O3       O      0.77416      0.72122      0.82068     -0.438 
O2       O      0.77195      0.21763      0.29523     -0.574 
O2       O      0.27195      0.71763      0.29523     -0.574 
O2       O      0.27195      0.21763      0.79523     -0.574 
O2       O      0.77195      0.71763      0.79523     -0.574 
O2       O      0.92561      0.07701      0.48044     -0.574 
O2       O      0.42561      0.57701      0.48044     -0.574 
O2       O      0.42561      0.07701      0.98044     -0.574 
O2       O      0.92561      0.57701      0.98044     -0.574 
O3       O      0.94003      0.0877595    0.49692     -0.438 
O3       O      0.44003      0.58776      0.49692     -0.438 
O3       O      0.44003      0.0877595    0.99692     -0.438 
O3       O      0.94003      0.58776      0.99692     -0.438 
O3       O      0.97279      0.0875795    0.39876     -0.438 
O3       O      0.47279      0.587579     0.39876     -0.438 
O3       O      0.47279      0.0875795    0.89876     -0.438 
O3       O      0.97279      0.587579     0.89876     -0.438 
O2       O      0.97747      0.107739     0.38451     -0.574 
O2       O      0.47747      0.607739     0.38451     -0.574 
O2       O      0.47747      0.107739     0.88451     -0.574 
O2       O      0.97747      0.607739     0.88451     -0.574 
O2       O      0.89811      0.10125      0.37552     -0.574 
O2       O      0.39811      0.60125      0.37552     -0.574 
O2       O      0.39811      0.10125      0.87552     -0.574 
O2       O      0.89811      0.60125      0.87552     -0.574 
O2       O      0.90693      0.12292      0.36631     -0.574 
O2       O      0.40693      0.62292      0.36631     -0.574 
O2       O      0.40693      0.12292      0.86631     -0.574 
O2       O      0.90693      0.62292      0.86631     -0.574 
O3       O      0.940889     0.19362      0.42195     -0.438 
O3       O      0.440889     0.69362      0.42195     -0.438 
O3       O      0.440889     0.19362      0.92195     -0.438 
O3       O      0.940889     0.69362      0.92195     -0.438 
O2       O      0.89622      0.14839      0.379439    -0.574 
O2       O      0.39622      0.64839      0.379439    -0.574 
O2       O      0.39622      0.14839      0.879439    -0.574 
O2       O      0.89622      0.64839      0.879439    -0.574 
O2       O      0.97624      0.18523      0.45379     -0.574 
O2       O      0.47624      0.68523      0.45379     -0.574 
O2       O      0.47624      0.18523      0.95379     -0.574 
O2       O      0.97624      0.68523      0.95379     -0.574 
O3       O      0.96912      0.18927      0.430549    -0.438 
O3       O      0.46912      0.68927      0.430549    -0.438 
O3       O      0.46912      0.18927      0.930549    -0.438 
O3       O      0.96912      0.68927      0.930549    -0.438 
O2       O      0.00664011   0.11692      0.42722     -0.574 
O2       O      0.50664      0.61692      0.42722     -0.574 
O2       O      0.50664      0.11692      0.92722     -0.574 
O2       O      0.00664011   0.61692      0.92722     -0.574 
O2       O      0.99662      0.12647      0.40475     -0.574 
O2       O      0.49662      0.62647      0.40475     -0.574 
O2       O      0.49662      0.12647      0.90475     -0.574 
O2       O      0.99662      0.62647      0.90475     -0.574 
F1       F      0.4475       0.0942005    0.0252597   -0.547 
F1       F      0.9475       0.5942       0.0252597   -0.547 
F1       F      0.9475       0.0942005    0.52526     -0.547 
F1       F      0.4475       0.5942       0.52526     -0.547 
C3       C      0.89071      0.3795       0.43066     -0.058 
C3       C      0.39071      0.8795       0.43066     -0.058 
C3       C      0.39071      0.3795       0.93066     -0.058 
C3       C      0.89071      0.8795       0.93066     -0.058 
C3       C      0.812        0.33163      0.25507     -0.058 
C3       C      0.312        0.83163      0.25507     -0.058 
C3       C      0.312        0.33163      0.75507     -0.058 
C3       C      0.812        0.83163      0.75507     -0.058 
C3       C      0.8153       0.335059     0.27052     -0.058 
C3       C      0.3153       0.835059     0.27052     -0.058 
C3       C      0.3153       0.335059     0.77052     -0.058 
C3       C      0.8153       0.835059     0.77052     -0.058 
C3       C      0.74748      0.23623      0.29691     -0.058 
C3       C      0.24748      0.73623      0.29691     -0.058 
C3       C      0.24748      0.23623      0.79691     -0.058 
C3       C      0.74748      0.73623      0.79691     -0.058 
C1       C      0.770329     0.226        0.30736      0.496 
C1       C      0.27033      0.726        0.30736      0.496 
C1       C      0.27033      0.226        0.80736      0.496 
C1       C      0.770329     0.726        0.80736      0.496 
C2       C      0.7594       0.23755      0.30736     -0.07  
C2       C      0.2594       0.73755      0.30736     -0.07  
C2       C      0.2594       0.23755      0.80736     -0.07  
C2       C      0.7594       0.73755      0.80736     -0.07  
C3       C      0.75632      0.24506      0.32141     -0.058 
C3       C      0.25632      0.74506      0.32141     -0.058 
C3       C      0.25632      0.24506      0.82141     -0.058 
C3       C      0.75632      0.74506      0.82141     -0.058 
C3       C      0.94769      0.0718394    0.45923     -0.058 
C3       C      0.44769      0.571839     0.45923     -0.058 
C3       C      0.44769      0.0718394    0.95923     -0.058 
C3       C      0.94769      0.571839     0.95923     -0.058 
C1       C      0.9387       0.0802203    0.48456      0.496 
C1       C      0.4387       0.58022      0.48456      0.496 
C1       C      0.4387       0.0802203    0.984559     0.496 
C1       C      0.9387       0.58022      0.984559     0.496 
C2       C      0.949819     0.0811104    0.47259     -0.07  
C2       C      0.449819     0.58111      0.47259     -0.07  
C2       C      0.449819     0.0811104    0.97259     -0.07  
C2       C      0.949819     0.58111      0.97259     -0.07  
C3       C      0.96067      0.0928997    0.47197     -0.058 
C3       C      0.46067      0.5929       0.47197     -0.058 
C3       C      0.46067      0.0928997    0.97197     -0.058 
C3       C      0.96067      0.5929       0.97197     -0.058 
C3       C      0.94184      0.09204      0.39347     -0.058 
C3       C      0.44184      0.59204      0.39347     -0.058 
C3       C      0.44184      0.09204      0.89347     -0.058 
C3       C      0.94184      0.59204      0.89347     -0.058 
C1       C      0.96908      0.0967098    0.38844      0.496 
C1       C      0.46908      0.59671      0.38844      0.496 
C1       C      0.46908      0.0967098    0.88844      0.496 
C1       C      0.96908      0.59671      0.88844      0.496 
C2       C      0.95404      0.0989096    0.38504     -0.07  
C2       C      0.45404      0.59891      0.38504     -0.07  
C2       C      0.45404      0.0989096    0.88504     -0.07  
C2       C      0.95404      0.59891      0.88504     -0.07  
C3       C      0.9269       0.0947203    0.38883     -0.058 
C3       C      0.4269       0.59472      0.38883     -0.058 
C3       C      0.4269       0.0947203    0.88883     -0.058 
C3       C      0.9269       0.59472      0.88883     -0.058 
C1       C      0.90929      0.110299     0.37309      0.496 
C1       C      0.40929      0.610299     0.37309      0.496 
C1       C      0.40929      0.110299     0.87309      0.496 
C1       C      0.90929      0.610299     0.87309      0.496 
C2       C      0.92411      0.10769      0.3795      -0.07  
C2       C      0.42411      0.60769      0.3795      -0.07  
C2       C      0.42411      0.10769      0.8795      -0.07  
C2       C      0.92411      0.60769      0.8795      -0.07  
C3       C      0.95164      0.11224      0.37746     -0.058 
C3       C      0.45164      0.612239     0.37746     -0.058 
C3       C      0.45164      0.11224      0.87746     -0.058 
C3       C      0.95164      0.612239     0.87746     -0.058 
C3       C      0.9365       0.11582      0.37311     -0.058 
C3       C      0.4365       0.61582      0.37311     -0.058 
C3       C      0.4365       0.11582      0.87311     -0.058 
C3       C      0.9365       0.61582      0.87311     -0.058 
C3       C      0.92322      0.17951      0.40471     -0.058 
C3       C      0.42322      0.67951      0.40471     -0.058 
C3       C      0.42322      0.17951      0.90471     -0.058 
C3       C      0.92322      0.67951      0.90471     -0.058 
C3       C      0.91515      0.16801      0.39645     -0.058 
C3       C      0.41515      0.66801      0.39645     -0.058 
C3       C      0.41515      0.16801      0.89645     -0.058 
C3       C      0.91515      0.66801      0.89645     -0.058 
C3       C      0.98645      0.15706      0.44571     -0.058 
C3       C      0.48645      0.65706      0.44571     -0.058 
C3       C      0.48645      0.15706      0.94571     -0.058 
C3       C      0.98645      0.65706      0.94571     -0.058 
C1       C      0.97536      0.181299     0.44016      0.496 
C1       C      0.47536      0.681299     0.44016      0.496 
C1       C      0.47536      0.181299     0.94016      0.496 
C1       C      0.97536      0.681299     0.94016      0.496 
C2       C      0.98193      0.16789      0.43518     -0.07  
C2       C      0.48193      0.66789      0.43518     -0.07  
C2       C      0.48193      0.16789      0.93518     -0.07  
C2       C      0.98193      0.66789      0.93518     -0.07  
C3       C      0.99383      0.14422      0.44076     -0.058 
C3       C      0.49383      0.64422      0.44076     -0.058 
C3       C      0.49383      0.14422      0.94076     -0.058 
C3       C      0.99383      0.64422      0.94076     -0.058 
C1       C      0.99905      0.12747      0.41918      0.496 
C1       C      0.49905      0.62747      0.41918      0.496 
C1       C      0.49905      0.12747      0.91918      0.496 
C1       C      0.99905      0.62747      0.91918      0.496 
C2       C      0.99511      0.14175      0.42522     -0.07  
C2       C      0.49511      0.64175      0.42522     -0.07  
C2       C      0.49511      0.14175      0.92522     -0.07  
C2       C      0.99511      0.64175      0.92522     -0.07  
C3       C      0.98154      0.16484      0.41968     -0.058 
C3       C      0.48154      0.66484      0.41968     -0.058 
C3       C      0.48154      0.16484      0.91968     -0.058 
C3       C      0.98154      0.66484      0.91968     -0.058 
C3       C      0.98829      0.15158      0.41458     -0.058 
C3       C      0.48829      0.65158      0.41458     -0.058 
C3       C      0.48829      0.15158      0.91458     -0.058 
C3       C      0.98829      0.65158      0.91458     -0.058 
H1       H      0.802505     0.3367       0.249672     0.108 
H1       H      0.302505     0.8367       0.249672     0.108 
H1       H      0.302505     0.3367       0.749672     0.108 
H1       H      0.802505     0.8367       0.749672     0.108 
H1       H      0.808789     0.343313     0.276373     0.108 
H1       H      0.308789     0.843313     0.276373     0.108 
H1       H      0.308789     0.343313     0.776373     0.108 
H1       H      0.808789     0.843313     0.776373     0.108 
H1       H      0.934559     0.182218     0.401732     0.108 
H1       H      0.434559     0.682218     0.401732     0.108 
H1       H      0.434559     0.182218     0.901732     0.108 
H1       H      0.934559     0.682218     0.901732     0.108 
H1       H      0.919364     0.164125     0.385871     0.108 
H1       H      0.419364     0.664125     0.385871     0.108 
H1       H      0.419364     0.164125     0.885871     0.108 
H1       H      0.919364     0.664125     0.885871     0.108 
H1       H      0.902375     0.381832     0.428901     0.108 
H1       H      0.402375     0.881832     0.428901     0.108 
H1       H      0.402375     0.381832     0.928901     0.108 
H1       H      0.902375     0.881832     0.928901     0.108 
H1       H      0.747154     0.226915     0.289301     0.108 
H1       H      0.247154     0.726915     0.289301     0.108 
H1       H      0.247154     0.226915     0.789301     0.108 
H1       H      0.747154     0.726915     0.789301     0.108 
H1       H      0.976187     0.172561     0.412162     0.108 
H1       H      0.476187     0.672561     0.412162     0.108 
H1       H      0.476187     0.172561     0.912162     0.108 
H1       H      0.976187     0.672561     0.912162     0.108 
H1       H      0.988276     0.14895      0.402826     0.108 
H1       H      0.488276     0.64895      0.402826     0.108 
H1       H      0.488276     0.14895      0.902826     0.108 
H1       H      0.988276     0.64895      0.902826     0.108 
H1       H      0.984203     0.15874      0.457414     0.108 
H1       H      0.484203     0.65874      0.457414     0.108 
H1       H      0.484203     0.15874      0.957414     0.108 
H1       H      0.984203     0.65874      0.957414     0.108 
H1       H      0.998402     0.136449     0.448741     0.108 
H1       H      0.498402     0.636449     0.448741     0.108 
H1       H      0.498402     0.136449     0.948741     0.108 
H1       H      0.998402     0.636449     0.948741     0.108 
H1       H      0.937739     0.0651802    0.458053     0.108 
H1       H      0.437739     0.56518      0.458053     0.108 
H1       H      0.437739     0.0651802    0.958053     0.108 
H1       H      0.937739     0.56518      0.958053     0.108 
H1       H      0.960334     0.101816     0.480043     0.108 
H1       H      0.460334     0.601816     0.480043     0.108 
H1       H      0.460334     0.101816     0.980043     0.108 
H1       H      0.960334     0.601816     0.980043     0.108 
H1       H      0.960902     0.119519     0.375009     0.108 
H1       H      0.460902     0.619519     0.375009     0.108 
H1       H      0.460902     0.119519     0.875009     0.108 
H1       H      0.960902     0.619519     0.875009     0.108 
H1       H      0.934466     0.124561     0.365095     0.108 
H1       H      0.434466     0.624561     0.365095     0.108 
H1       H      0.434466     0.124561     0.865095     0.108 
H1       H      0.934466     0.624561     0.865095     0.108 
H1       H      0.944271     0.0850983    0.403        0.108 
H1       H      0.444271     0.585098     0.403        0.108 
H1       H      0.444271     0.0850983    0.903        0.108 
H1       H      0.944271     0.585098     0.903        0.108 
H1       H      0.918109     0.0872475    0.392241     0.108 
H1       H      0.418109     0.587248     0.392241     0.108 
H1       H      0.418109     0.0872475    0.892241     0.108 
H1       H      0.918109     0.587248     0.892241     0.108 
H1       H      0.762456     0.242047     0.331316     0.108 
H1       H      0.262456     0.742047     0.331316     0.108 
H1       H      0.262456     0.242047     0.831316     0.108 
H1       H      0.762456     0.742047     0.831316     0.108 
Cr1      Cr     0.82201      0.0947304    0.237089     1.619 
Cr1      Cr     0.32201      0.59473      0.237089     1.619 
Cr1      Cr     0.32201      0.0947304    0.737089     1.619 
Cr1      Cr     0.82201      0.59473      0.737089     1.619 
Cr1      Cr     0.45754      0.3228       0.0415398    1.619 
Cr1      Cr     0.95754      0.8228       0.0415398    1.619 
Cr1      Cr     0.95754      0.3228       0.54154      1.619 
Cr1      Cr     0.45754      0.8228       0.54154      1.619 
O2       O      0.840179     0.35869      0.31964     -0.574 
O2       O      0.34018      0.85869      0.31964     -0.574 
O2       O      0.34018      0.35869      0.81964     -0.574 
O2       O      0.840179     0.85869      0.81964     -0.574 
O2       O      0.44413      0.3239       0.0235403   -0.574 
O2       O      0.94413      0.8239       0.0235403   -0.574 
O2       O      0.94413      0.3239       0.52354     -0.574 
O2       O      0.44413      0.8239       0.52354     -0.574 
O2       O      0.927369     0.338859     0.4493      -0.574 
O2       O      0.427369     0.838859     0.4493      -0.574 
O2       O      0.427369     0.338859     0.9493      -0.574 
O2       O      0.927369     0.838859     0.9493      -0.574 
O3       O      0.97584      0.22122      0.42932     -0.438 
O3       O      0.47584      0.72122      0.42932     -0.438 
O3       O      0.47584      0.22122      0.92932     -0.438 
O3       O      0.97584      0.72122      0.92932     -0.438 
O2       O      0.97805      0.21763      0.454771    -0.574 
O2       O      0.47805      0.71763      0.454771    -0.574 
O2       O      0.47805      0.21763      0.954769    -0.574 
O2       O      0.97805      0.71763      0.954769    -0.574 
O2       O      0.82439      0.07701      0.26956     -0.574 
O2       O      0.32439      0.57701      0.26956     -0.574 
O2       O      0.32439      0.07701      0.76956     -0.574 
O2       O      0.82439      0.57701      0.76956     -0.574 
O2       O      0.80997      0.0877595    0.25308     -0.574 
O2       O      0.30997      0.58776      0.25308     -0.574 
O2       O      0.30997      0.0877595    0.75308     -0.574 
O2       O      0.80997      0.58776      0.75308     -0.574 
O2       O      0.77721      0.0875795    0.351239    -0.574 
O2       O      0.27721      0.587579     0.351239    -0.574 
O2       O      0.27721      0.0875795    0.851239    -0.574 
O2       O      0.77721      0.587579     0.851239    -0.574 
O2       O      0.77253      0.107739     0.36549     -0.574 
O2       O      0.27253      0.607739     0.36549     -0.574 
O2       O      0.27253      0.107739     0.86549     -0.574 
O2       O      0.77253      0.607739     0.86549     -0.574 
O2       O      0.85189      0.10125      0.37448     -0.574 
O2       O      0.35189      0.60125      0.37448     -0.574 
O2       O      0.35189      0.10125      0.87448     -0.574 
O2       O      0.85189      0.60125      0.87448     -0.574 
O3       O      0.84307      0.12292      0.383689    -0.438 
O3       O      0.34307      0.62292      0.383689    -0.438 
O3       O      0.34307      0.12292      0.883689    -0.438 
O3       O      0.84307      0.62292      0.883689    -0.438 
O3       O      0.80911      0.19362      0.32805     -0.438 
O3       O      0.30911      0.69362      0.32805     -0.438 
O3       O      0.30911      0.19362      0.82805     -0.438 
O3       O      0.80911      0.69362      0.82805     -0.438 
O3       O      0.85378      0.14839      0.37056     -0.438 
O3       O      0.35378      0.64839      0.37056     -0.438 
O3       O      0.35378      0.14839      0.87056     -0.438 
O3       O      0.85378      0.64839      0.87056     -0.438 
O2       O      0.77376      0.18523      0.29621     -0.574 
O2       O      0.27376      0.68523      0.29621     -0.574 
O2       O      0.27376      0.18523      0.79621     -0.574 
O2       O      0.77376      0.68523      0.79621     -0.574 
O3       O      0.78088      0.18927      0.31945     -0.438 
O3       O      0.28088      0.68927      0.31945     -0.438 
O3       O      0.28088      0.18927      0.81945     -0.438 
O3       O      0.78088      0.68927      0.81945     -0.438 
O3       O      0.74336      0.11692      0.32278     -0.438 
O3       O      0.24336      0.61692      0.32278     -0.438 
O3       O      0.24336      0.11692      0.82278     -0.438 
O3       O      0.74336      0.61692      0.82278     -0.438 
O2       O      0.75338      0.12647      0.34525     -0.574 
O2       O      0.25338      0.62647      0.34525     -0.574 
O2       O      0.25338      0.12647      0.84525     -0.574 
O2       O      0.75338      0.62647      0.84525     -0.574 
C3       C      0.85929      0.3795       0.31934     -0.058 
C3       C      0.35929      0.8795       0.31934     -0.058 
C3       C      0.35929      0.3795       0.81934     -0.058 
C3       C      0.85929      0.8795       0.81934     -0.058 
C3       C      0.938        0.33163      0.49493     -0.058 
C3       C      0.438        0.83163      0.49493     -0.058 
C3       C      0.438        0.33163      0.99493     -0.058 
C3       C      0.938        0.83163      0.99493     -0.058 
C3       C      0.934699     0.335059     0.47948     -0.058 
C3       C      0.434701     0.835059     0.47948     -0.058 
C3       C      0.434701     0.335059     0.97948     -0.058 
C3       C      0.934699     0.835059     0.97948     -0.058 
C3       C      0.00252056   0.23623      0.453091    -0.058 
C3       C      0.502519     0.73623      0.453091    -0.058 
C3       C      0.502519     0.23623      0.953089    -0.058 
C3       C      0.00252056   0.73623      0.953089    -0.058 
C1       C      0.97967      0.226        0.44264      0.496 
C1       C      0.47967      0.726        0.44264      0.496 
C1       C      0.47967      0.226        0.94264      0.496 
C1       C      0.97967      0.726        0.94264      0.496 
C2       C      0.9906       0.23755      0.44264     -0.07  
C2       C      0.4906       0.73755      0.44264     -0.07  
C2       C      0.4906       0.23755      0.94264     -0.07  
C2       C      0.9906       0.73755      0.94264     -0.07  
C3       C      0.993679     0.24506      0.42859     -0.058 
C3       C      0.493679     0.74506      0.42859     -0.058 
C3       C      0.493679     0.24506      0.92859     -0.058 
C3       C      0.993679     0.74506      0.92859     -0.058 
C3       C      0.80231      0.0718394    0.29077     -0.058 
C3       C      0.30231      0.571839     0.29077     -0.058 
C3       C      0.30231      0.0718394    0.79077     -0.058 
C3       C      0.80231      0.571839     0.79077     -0.058 
C1       C      0.8113       0.0802203    0.26544      0.496 
C1       C      0.3113       0.58022      0.26544      0.496 
C1       C      0.3113       0.0802203    0.76544      0.496 
C1       C      0.8113       0.58022      0.76544      0.496 
C2       C      0.80018      0.0811104    0.277409    -0.07  
C2       C      0.30018      0.58111      0.277409    -0.07  
C2       C      0.30018      0.0811104    0.777409    -0.07  
C2       C      0.80018      0.58111      0.777409    -0.07  
C3       C      0.78933      0.0928997    0.278029    -0.058 
C3       C      0.28933      0.5929       0.278029    -0.058 
C3       C      0.28933      0.0928997    0.778029    -0.058 
C3       C      0.78933      0.5929       0.778029    -0.058 
C3       C      0.80816      0.09204      0.35653     -0.058 
C3       C      0.30816      0.59204      0.35653     -0.058 
C3       C      0.30816      0.09204      0.85653     -0.058 
C3       C      0.80816      0.59204      0.85653     -0.058 
C1       C      0.78092      0.0967098    0.36156      0.496 
C1       C      0.28092      0.59671      0.36156      0.496 
C1       C      0.28092      0.0967098    0.86156      0.496 
C1       C      0.78092      0.59671      0.86156      0.496 
C2       C      0.79596      0.0989096    0.36496     -0.07  
C2       C      0.29596      0.59891      0.36496     -0.07  
C2       C      0.29596      0.0989096    0.86496     -0.07  
C2       C      0.79596      0.59891      0.86496     -0.07  
C3       C      0.8231       0.0947203    0.36117     -0.058 
C3       C      0.3231       0.59472      0.36117     -0.058 
C3       C      0.3231       0.0947203    0.86117     -0.058 
C3       C      0.8231       0.59472      0.86117     -0.058 
C1       C      0.840709     0.110299     0.37691      0.496 
C1       C      0.34071      0.610299     0.37691      0.496 
C1       C      0.34071      0.110299     0.87691      0.496 
C1       C      0.840709     0.610299     0.87691      0.496 
C2       C      0.82589      0.10769      0.3705      -0.07  
C2       C      0.32589      0.60769      0.3705      -0.07  
C2       C      0.32589      0.10769      0.8705      -0.07  
C2       C      0.82589      0.60769      0.8705      -0.07  
C3       C      0.798359     0.11224      0.37254     -0.058 
C3       C      0.298361     0.612239     0.37254     -0.058 
C3       C      0.298361     0.11224      0.872539    -0.058 
C3       C      0.798359     0.612239     0.872539    -0.058 
C3       C      0.8135       0.11582      0.37689     -0.058 
C3       C      0.3135       0.61582      0.37689     -0.058 
C3       C      0.3135       0.11582      0.87689     -0.058 
C3       C      0.8135       0.61582      0.87689     -0.058 
C3       C      0.82678      0.17951      0.34529     -0.058 
C3       C      0.32678      0.67951      0.34529     -0.058 
C3       C      0.32678      0.17951      0.84529     -0.058 
C3       C      0.82678      0.67951      0.84529     -0.058 
C3       C      0.83485      0.16801      0.35355     -0.058 
C3       C      0.33485      0.66801      0.35355     -0.058 
C3       C      0.33485      0.16801      0.85355     -0.058 
C3       C      0.83485      0.66801      0.85355     -0.058 
C3       C      0.76355      0.15706      0.304289    -0.058 
C3       C      0.26355      0.65706      0.304289    -0.058 
C3       C      0.26355      0.15706      0.804289    -0.058 
C3       C      0.76355      0.65706      0.804289    -0.058 
C1       C      0.77464      0.181299     0.30984      0.496 
C1       C      0.27464      0.681299     0.30984      0.496 
C1       C      0.27464      0.181299     0.80984      0.496 
C1       C      0.77464      0.681299     0.80984      0.496 
C2       C      0.76807      0.16789      0.31482     -0.07  
C2       C      0.26807      0.66789      0.31482     -0.07  
C2       C      0.26807      0.16789      0.81482     -0.07  
C2       C      0.76807      0.66789      0.81482     -0.07  
C3       C      0.75617      0.14422      0.309239    -0.058 
C3       C      0.25617      0.64422      0.309239    -0.058 
C3       C      0.25617      0.14422      0.809239    -0.058 
C3       C      0.75617      0.64422      0.809239    -0.058 
C1       C      0.75095      0.12747      0.33082      0.496 
C1       C      0.25095      0.62747      0.33082      0.496 
C1       C      0.25095      0.12747      0.83082      0.496 
C1       C      0.75095      0.62747      0.83082      0.496 
C2       C      0.75489      0.14175      0.32478     -0.07  
C2       C      0.25489      0.64175      0.32478     -0.07  
C2       C      0.25489      0.14175      0.82478     -0.07  
C2       C      0.75489      0.64175      0.82478     -0.07  
C3       C      0.76846      0.16484      0.33032     -0.058 
C3       C      0.26846      0.66484      0.33032     -0.058 
C3       C      0.26846      0.16484      0.83032     -0.058 
C3       C      0.76846      0.66484      0.83032     -0.058 
C3       C      0.76171      0.15158      0.33542     -0.058 
C3       C      0.26171      0.65158      0.33542     -0.058 
C3       C      0.26171      0.15158      0.83542     -0.058 
C3       C      0.76171      0.65158      0.83542     -0.058 
H1       H      0.447495     0.3367       0.000327448  0.108 
H1       H      0.947495     0.8367       0.000327448  0.108 
H1       H      0.947495     0.3367       0.500327     0.108 
H1       H      0.447495     0.8367       0.500327     0.108 
H1       H      0.94121      0.343313     0.473626     0.108 
H1       H      0.44121      0.843313     0.473626     0.108 
H1       H      0.44121      0.343313     0.973626     0.108 
H1       H      0.94121      0.843313     0.973626     0.108 
H1       H      0.815441     0.182218     0.348268     0.108 
H1       H      0.315441     0.682218     0.348268     0.108 
H1       H      0.315441     0.182218     0.848268     0.108 
H1       H      0.815441     0.682218     0.848268     0.108 
H1       H      0.830635     0.164125     0.364128     0.108 
H1       H      0.330635     0.664125     0.364128     0.108 
H1       H      0.330635     0.164125     0.864128     0.108 
H1       H      0.830635     0.664125     0.864128     0.108 
H1       H      0.847624     0.381832     0.3211       0.108 
H1       H      0.347624     0.881832     0.3211       0.108 
H1       H      0.347624     0.381832     0.8211       0.108 
H1       H      0.847624     0.881832     0.8211       0.108 
H1       H      0.00284576   0.226915     0.460699     0.108 
H1       H      0.502846     0.726915     0.460699     0.108 
H1       H      0.502846     0.226915     0.960699     0.108 
H1       H      0.00284576   0.726915     0.960699     0.108 
H1       H      0.773812     0.172561     0.337838     0.108 
H1       H      0.273812     0.672561     0.337838     0.108 
H1       H      0.273812     0.172561     0.837838     0.108 
H1       H      0.773812     0.672561     0.837838     0.108 
H1       H      0.761723     0.14895      0.347174     0.108 
H1       H      0.261723     0.64895      0.347174     0.108 
H1       H      0.261723     0.14895      0.847174     0.108 
H1       H      0.761723     0.64895      0.847174     0.108 
H1       H      0.765797     0.15874      0.292587     0.108 
H1       H      0.265798     0.65874      0.292587     0.108 
H1       H      0.265798     0.15874      0.792587     0.108 
H1       H      0.765797     0.65874      0.792587     0.108 
H1       H      0.751598     0.136449     0.301258     0.108 
H1       H      0.251598     0.636449     0.301258     0.108 
H1       H      0.251598     0.136449     0.801258     0.108 
H1       H      0.751598     0.636449     0.801258     0.108 
H1       H      0.812261     0.0651802    0.291948     0.108 
H1       H      0.312261     0.56518      0.291948     0.108 
H1       H      0.312261     0.0651802    0.791948     0.108 
H1       H      0.812261     0.56518      0.791948     0.108 
H1       H      0.789666     0.101816     0.269958     0.108 
H1       H      0.289666     0.601816     0.269958     0.108 
H1       H      0.289666     0.101816     0.769958     0.108 
H1       H      0.789666     0.601816     0.769958     0.108 
H1       H      0.789099     0.119519     0.374991     0.108 
H1       H      0.289099     0.619519     0.374991     0.108 
H1       H      0.289099     0.119519     0.874991     0.108 
H1       H      0.789099     0.619519     0.874991     0.108 
H1       H      0.815533     0.124561     0.384905     0.108 
H1       H      0.315533     0.624561     0.384905     0.108 
H1       H      0.315533     0.124561     0.884905     0.108 
H1       H      0.815533     0.624561     0.884905     0.108 
H1       H      0.805729     0.0850983    0.347        0.108 
H1       H      0.305729     0.585098     0.347        0.108 
H1       H      0.305729     0.0850983    0.847        0.108 
H1       H      0.805729     0.585098     0.847        0.108 
H1       H      0.831891     0.0872475    0.357758     0.108 
H1       H      0.331891     0.587248     0.357758     0.108 
H1       H      0.331891     0.0872475    0.857758     0.108 
H1       H      0.831891     0.587248     0.857758     0.108 
H1       H      0.987543     0.242047     0.418685     0.108 
H1       H      0.487543     0.742047     0.418685     0.108 
H1       H      0.487543     0.242047     0.918685     0.108 
H1       H      0.987543     0.742047     0.918685     0.108 
Cr1      Cr     0.42799      0.15527      0.237089     1.619 
Cr1      Cr     0.92799      0.65527      0.237089     1.619 
Cr1      Cr     0.92799      0.15527      0.737089     1.619 
Cr1      Cr     0.42799      0.65527      0.737089     1.619 
Cr2      Cr     0.29246      0.4272       0.0415398    1.35  
Cr2      Cr     0.79246      0.9272       0.0415398    1.35  
Cr2      Cr     0.79246      0.4272       0.54154      1.35  
Cr2      Cr     0.29246      0.9272       0.54154      1.35  
O2       O      0.90982      0.39131      0.31964     -0.574 
O2       O      0.40982      0.89131      0.31964     -0.574 
O2       O      0.40982      0.39131      0.81964     -0.574 
O2       O      0.90982      0.89131      0.81964     -0.574 
O3       O      0.30587      0.4261       0.0235403   -0.438 
O3       O      0.80587      0.9261       0.0235403   -0.438 
O3       O      0.80587      0.4261       0.52354     -0.438 
O3       O      0.30587      0.9261       0.52354     -0.438 
O3       O      0.82263      0.41114      0.4493      -0.438 
O3       O      0.32263      0.91114      0.4493      -0.438 
O3       O      0.32263      0.41114      0.9493      -0.438 
O3       O      0.82263      0.91114      0.9493      -0.438 
O2       O      0.27416      0.0287794    0.42932     -0.574 
O2       O      0.77416      0.528779     0.42932     -0.574 
O2       O      0.77416      0.0287794    0.92932     -0.574 
O2       O      0.27416      0.528779     0.92932     -0.574 
O3       O      0.27195      0.0323701    0.454771    -0.438 
O3       O      0.77195      0.53237      0.454771    -0.438 
O3       O      0.77195      0.0323701    0.954769    -0.438 
O3       O      0.27195      0.53237      0.954769    -0.438 
O2       O      0.42561      0.172989     0.26956     -0.574 
O2       O      0.92561      0.672989     0.26956     -0.574 
O2       O      0.92561      0.172989     0.76956     -0.574 
O2       O      0.42561      0.672989     0.76956     -0.574 
O2       O      0.44003      0.16224      0.25308     -0.574 
O2       O      0.94003      0.66224      0.25308     -0.574 
O2       O      0.94003      0.16224      0.75308     -0.574 
O2       O      0.44003      0.66224      0.75308     -0.574 
O3       O      0.47279      0.16242      0.351239    -0.438 
O3       O      0.97279      0.66242      0.351239    -0.438 
O3       O      0.97279      0.16242      0.851239    -0.438 
O3       O      0.47279      0.66242      0.851239    -0.438 
O2       O      0.47747      0.14226      0.36549     -0.574 
O2       O      0.97747      0.64226      0.36549     -0.574 
O2       O      0.97747      0.14226      0.86549     -0.574 
O2       O      0.47747      0.64226      0.86549     -0.574 
O3       O      0.39811      0.14875      0.37448     -0.438 
O3       O      0.89811      0.64875      0.37448     -0.438 
O3       O      0.89811      0.14875      0.87448     -0.438 
O3       O      0.39811      0.64875      0.87448     -0.438 
O2       O      0.40693      0.12708      0.383689    -0.574 
O2       O      0.90693      0.62708      0.383689    -0.574 
O2       O      0.90693      0.12708      0.883689    -0.574 
O2       O      0.40693      0.62708      0.883689    -0.574 
O2       O      0.440889     0.0563796    0.32805     -0.574 
O2       O      0.940889     0.55638      0.32805     -0.574 
O2       O      0.940889     0.0563796    0.82805     -0.574 
O2       O      0.440889     0.55638      0.82805     -0.574 
O2       O      0.39622      0.10161      0.37056     -0.574 
O2       O      0.89622      0.60161      0.37056     -0.574 
O2       O      0.89622      0.10161      0.87056     -0.574 
O2       O      0.39622      0.60161      0.87056     -0.574 
O3       O      0.47624      0.0647695    0.29621     -0.438 
O3       O      0.97624      0.564769     0.29621     -0.438 
O3       O      0.97624      0.0647695    0.79621     -0.438 
O3       O      0.47624      0.564769     0.79621     -0.438 
O2       O      0.46912      0.0607298    0.31945     -0.574 
O2       O      0.96912      0.56073      0.31945     -0.574 
O2       O      0.96912      0.0607298    0.81945     -0.574 
O2       O      0.46912      0.56073      0.81945     -0.574 
O2       O      0.50664      0.13308      0.32278     -0.574 
O2       O      0.00664011   0.63308      0.32278     -0.574 
O2       O      0.00664011   0.13308      0.82278     -0.574 
O2       O      0.50664      0.63308      0.82278     -0.574 
O2       O      0.49662      0.12353      0.34525     -0.574 
O2       O      0.99662      0.62353      0.34525     -0.574 
O2       O      0.99662      0.12353      0.84525     -0.574 
O2       O      0.49662      0.62353      0.84525     -0.574 
F1       F      0.288729     0.40585      0.0391295   -0.547 
F1       F      0.788729     0.90585      0.0391295   -0.547 
F1       F      0.788729     0.40585      0.53913     -0.547 
F1       F      0.288729     0.90585      0.53913     -0.547 
C3       C      0.89071      0.3705       0.31934     -0.058 
C3       C      0.39071      0.8705       0.31934     -0.058 
C3       C      0.39071      0.3705       0.81934     -0.058 
C3       C      0.89071      0.8705       0.81934     -0.058 
C3       C      0.812        0.41837      0.49493     -0.058 
C3       C      0.312        0.91837      0.49493     -0.058 
C3       C      0.312        0.41837      0.99493     -0.058 
C3       C      0.812        0.91837      0.99493     -0.058 
C3       C      0.8153       0.41494      0.47948     -0.058 
C3       C      0.3153       0.91494      0.47948     -0.058 
C3       C      0.3153       0.41494      0.97948     -0.058 
C3       C      0.8153       0.91494      0.97948     -0.058 
C3       C      0.24748      0.0137697    0.453091    -0.058 
C3       C      0.74748      0.51377      0.453091    -0.058 
C3       C      0.74748      0.0137697    0.953089    -0.058 
C3       C      0.24748      0.51377      0.953089    -0.058 
C1       C      0.27033      0.0240005    0.44264      0.496 
C1       C      0.770329     0.523999     0.44264      0.496 
C1       C      0.770329     0.0240005    0.94264      0.496 
C1       C      0.27033      0.523999     0.94264      0.496 
C2       C      0.2594       0.0124498    0.44264     -0.07  
C2       C      0.7594       0.51245      0.44264     -0.07  
C2       C      0.7594       0.0124498    0.94264     -0.07  
C2       C      0.2594       0.51245      0.94264     -0.07  
C3       C      0.25632      0.00493986   0.42859     -0.058 
C3       C      0.75632      0.50494      0.42859     -0.058 
C3       C      0.75632      0.00493986   0.92859     -0.058 
C3       C      0.25632      0.50494      0.92859     -0.058 
C3       C      0.44769      0.17816      0.29077     -0.058 
C3       C      0.94769      0.67816      0.29077     -0.058 
C3       C      0.94769      0.17816      0.79077     -0.058 
C3       C      0.44769      0.67816      0.79077     -0.058 
C1       C      0.4387       0.16978      0.26544      0.496 
C1       C      0.9387       0.66978      0.26544      0.496 
C1       C      0.9387       0.16978      0.76544      0.496 
C1       C      0.4387       0.66978      0.76544      0.496 
C2       C      0.449819     0.16889      0.277409    -0.07  
C2       C      0.949819     0.66889      0.277409    -0.07  
C2       C      0.949819     0.16889      0.777409    -0.07  
C2       C      0.449819     0.66889      0.777409    -0.07  
C3       C      0.46067      0.1571       0.278029    -0.058 
C3       C      0.96067      0.6571       0.278029    -0.058 
C3       C      0.96067      0.1571       0.778029    -0.058 
C3       C      0.46067      0.6571       0.778029    -0.058 
C3       C      0.44184      0.157959     0.35653     -0.058 
C3       C      0.94184      0.657959     0.35653     -0.058 
C3       C      0.94184      0.157959     0.85653     -0.058 
C3       C      0.44184      0.657959     0.85653     -0.058 
C1       C      0.46908      0.15329      0.36156      0.496 
C1       C      0.96908      0.65329      0.36156      0.496 
C1       C      0.96908      0.15329      0.86156      0.496 
C1       C      0.46908      0.65329      0.86156      0.496 
C2       C      0.45404      0.15109      0.36496     -0.07  
C2       C      0.95404      0.65109      0.36496     -0.07  
C2       C      0.95404      0.15109      0.86496     -0.07  
C2       C      0.45404      0.65109      0.86496     -0.07  
C3       C      0.4269       0.15528      0.36117     -0.058 
C3       C      0.9269       0.65528      0.36117     -0.058 
C3       C      0.9269       0.15528      0.86117     -0.058 
C3       C      0.4269       0.65528      0.86117     -0.058 
C1       C      0.40929      0.1397       0.37691      0.496 
C1       C      0.90929      0.6397       0.37691      0.496 
C1       C      0.90929      0.1397       0.87691      0.496 
C1       C      0.40929      0.6397       0.87691      0.496 
C2       C      0.42411      0.142309     0.3705      -0.07  
C2       C      0.92411      0.642309     0.3705      -0.07  
C2       C      0.92411      0.142309     0.8705      -0.07  
C2       C      0.42411      0.642309     0.8705      -0.07  
C3       C      0.45164      0.13776      0.37254     -0.058 
C3       C      0.95164      0.63776      0.37254     -0.058 
C3       C      0.95164      0.13776      0.872539    -0.058 
C3       C      0.45164      0.63776      0.872539    -0.058 
C3       C      0.4365       0.13418      0.37689     -0.058 
C3       C      0.9365       0.63418      0.37689     -0.058 
C3       C      0.9365       0.13418      0.87689     -0.058 
C3       C      0.4365       0.63418      0.87689     -0.058 
C3       C      0.42322      0.0704903    0.34529     -0.058 
C3       C      0.92322      0.57049      0.34529     -0.058 
C3       C      0.92322      0.0704903    0.84529     -0.058 
C3       C      0.42322      0.57049      0.84529     -0.058 
C3       C      0.41515      0.0819903    0.35355     -0.058 
C3       C      0.91515      0.58199      0.35355     -0.058 
C3       C      0.91515      0.0819903    0.85355     -0.058 
C3       C      0.41515      0.58199      0.85355     -0.058 
C3       C      0.48645      0.0929402    0.304289    -0.058 
C3       C      0.98645      0.59294      0.304289    -0.058 
C3       C      0.98645      0.0929402    0.804289    -0.058 
C3       C      0.48645      0.59294      0.804289    -0.058 
C1       C      0.47536      0.0687       0.30984      0.496 
C1       C      0.97536      0.5687       0.30984      0.496 
C1       C      0.97536      0.0687       0.80984      0.496 
C1       C      0.47536      0.5687       0.80984      0.496 
C2       C      0.48193      0.0821096    0.31482     -0.07  
C2       C      0.98193      0.58211      0.31482     -0.07  
C2       C      0.98193      0.0821096    0.81482     -0.07  
C2       C      0.48193      0.58211      0.81482     -0.07  
C3       C      0.49383      0.10578      0.309239    -0.058 
C3       C      0.99383      0.60578      0.309239    -0.058 
C3       C      0.99383      0.10578      0.809239    -0.058 
C3       C      0.49383      0.60578      0.809239    -0.058 
C1       C      0.49905      0.12253      0.33082      0.496 
C1       C      0.99905      0.62253      0.33082      0.496 
C1       C      0.99905      0.12253      0.83082      0.496 
C1       C      0.49905      0.62253      0.83082      0.496 
C2       C      0.49511      0.10825      0.32478     -0.07  
C2       C      0.99511      0.60825      0.32478     -0.07  
C2       C      0.99511      0.10825      0.82478     -0.07  
C2       C      0.49511      0.60825      0.82478     -0.07  
C3       C      0.48154      0.0851602    0.33032     -0.058 
C3       C      0.98154      0.58516      0.33032     -0.058 
C3       C      0.98154      0.0851602    0.83032     -0.058 
C3       C      0.48154      0.58516      0.83032     -0.058 
C3       C      0.48829      0.0984201    0.33542     -0.058 
C3       C      0.98829      0.59842      0.33542     -0.058 
C3       C      0.98829      0.0984201    0.83542     -0.058 
C3       C      0.48829      0.59842      0.83542     -0.058 
H1       H      0.302505     0.413299     0.000327448  0.108 
H1       H      0.802505     0.913299     0.000327448  0.108 
H1       H      0.802505     0.413299     0.500327     0.108 
H1       H      0.302505     0.913299     0.500327     0.108 
H1       H      0.808789     0.406686     0.473626     0.108 
H1       H      0.308789     0.906686     0.473626     0.108 
H1       H      0.308789     0.406686     0.973626     0.108 
H1       H      0.808789     0.906686     0.973626     0.108 
H1       H      0.434559     0.0677829    0.348268     0.108 
H1       H      0.934559     0.567783     0.348268     0.108 
H1       H      0.934559     0.0677829    0.848268     0.108 
H1       H      0.434559     0.567783     0.848268     0.108 
H1       H      0.419364     0.0858747    0.364128     0.108 
H1       H      0.919364     0.585875     0.364128     0.108 
H1       H      0.919364     0.0858747    0.864128     0.108 
H1       H      0.419364     0.585875     0.864128     0.108 
H1       H      0.902375     0.368168     0.3211       0.108 
H1       H      0.402375     0.868168     0.3211       0.108 
H1       H      0.402375     0.368168     0.8211       0.108 
H1       H      0.902375     0.868168     0.8211       0.108 
H1       H      0.247154     0.0230845    0.460699     0.108 
H1       H      0.747154     0.523085     0.460699     0.108 
H1       H      0.747154     0.0230845    0.960699     0.108 
H1       H      0.247154     0.523085     0.960699     0.108 
H1       H      0.476187     0.0774398    0.337838     0.108 
H1       H      0.976187     0.57744      0.337838     0.108 
H1       H      0.976187     0.0774398    0.837838     0.108 
H1       H      0.476187     0.57744      0.837838     0.108 
H1       H      0.488276     0.10105      0.347174     0.108 
H1       H      0.988276     0.60105      0.347174     0.108 
H1       H      0.988276     0.10105      0.847174     0.108 
H1       H      0.488276     0.60105      0.847174     0.108 
H1       H      0.484203     0.091259     0.292587     0.108 
H1       H      0.984203     0.591259     0.292587     0.108 
H1       H      0.984203     0.091259     0.792587     0.108 
H1       H      0.484203     0.591259     0.792587     0.108 
H1       H      0.498402     0.113551     0.301258     0.108 
H1       H      0.998402     0.613551     0.301258     0.108 
H1       H      0.998402     0.113551     0.801258     0.108 
H1       H      0.498402     0.613551     0.801258     0.108 
H1       H      0.437739     0.18482      0.291948     0.108 
H1       H      0.937739     0.684819     0.291948     0.108 
H1       H      0.937739     0.18482      0.791948     0.108 
H1       H      0.437739     0.684819     0.791948     0.108 
H1       H      0.460334     0.148184     0.269958     0.108 
H1       H      0.960334     0.648184     0.269958     0.108 
H1       H      0.960334     0.148184     0.769958     0.108 
H1       H      0.460334     0.648184     0.769958     0.108 
H1       H      0.460902     0.130481     0.374991     0.108 
H1       H      0.960902     0.630481     0.374991     0.108 
H1       H      0.960902     0.130481     0.874991     0.108 
H1       H      0.460902     0.630481     0.874991     0.108 
H1       H      0.434466     0.12544      0.384905     0.108 
H1       H      0.934466     0.62544      0.384905     0.108 
H1       H      0.934466     0.12544      0.884905     0.108 
H1       H      0.434466     0.62544      0.884905     0.108 
H1       H      0.444271     0.164901     0.347        0.108 
H1       H      0.944271     0.664901     0.347        0.108 
H1       H      0.944271     0.164901     0.847        0.108 
H1       H      0.444271     0.664901     0.847        0.108 
H1       H      0.418109     0.162753     0.357758     0.108 
H1       H      0.918109     0.662753     0.357758     0.108 
H1       H      0.918109     0.162753     0.857758     0.108 
H1       H      0.418109     0.662753     0.857758     0.108 
H1       H      0.262456     0.00795328   0.418685     0.108 
H1       H      0.762456     0.507953     0.418685     0.108 
H1       H      0.762456     0.00795328   0.918685     0.108 
H1       H      0.262456     0.507953     0.918685     0.108 
Cr2      Cr     0.15527      0.237089     0.42799      1.35  
Cr2      Cr     0.65527      0.737089     0.42799      1.35  
Cr2      Cr     0.65527      0.237089     0.92799      1.35  
Cr2      Cr     0.15527      0.737089     0.92799      1.35  
Cr1      Cr     0.4272       0.0415398    0.29246      1.619 
Cr1      Cr     0.9272       0.54154      0.29246      1.619 
Cr1      Cr     0.9272       0.0415398    0.79246      1.619 
Cr1      Cr     0.4272       0.54154      0.79246      1.619 
O3       O      0.89131      0.31964      0.40982     -0.438 
O3       O      0.39131      0.81964      0.40982     -0.438 
O3       O      0.39131      0.31964      0.90982     -0.438 
O3       O      0.89131      0.81964      0.90982     -0.438 
O2       O      0.4261       0.0235403    0.30587     -0.574 
O2       O      0.9261       0.52354      0.30587     -0.574 
O2       O      0.9261       0.0235403    0.80587     -0.574 
O2       O      0.4261       0.52354      0.80587     -0.574 
O3       O      0.91114      0.4493       0.32263     -0.438 
O3       O      0.41114      0.9493       0.32263     -0.438 
O3       O      0.41114      0.4493       0.82263     -0.438 
O3       O      0.91114      0.9493       0.82263     -0.438 
O2       O      0.0287794    0.42932      0.27416     -0.574 
O2       O      0.528779     0.92932      0.27416     -0.574 
O2       O      0.528779     0.42932      0.77416     -0.574 
O2       O      0.0287794    0.92932      0.77416     -0.574 
O2       O      0.0323701    0.454771     0.27195     -0.574 
O2       O      0.53237      0.954769     0.27195     -0.574 
O2       O      0.53237      0.454771     0.77195     -0.574 
O2       O      0.0323701    0.954769     0.77195     -0.574 
O2       O      0.172989     0.26956      0.42561     -0.574 
O2       O      0.672989     0.76956      0.42561     -0.574 
O2       O      0.672989     0.26956      0.92561     -0.574 
O2       O      0.172989     0.76956      0.92561     -0.574 
O3       O      0.16224      0.25308      0.44003     -0.438 
O3       O      0.66224      0.75308      0.44003     -0.438 
O3       O      0.66224      0.25308      0.94003     -0.438 
O3       O      0.16224      0.75308      0.94003     -0.438 
O3       O      0.16242      0.351239     0.47279     -0.438 
O3       O      0.66242      0.851239     0.47279     -0.438 
O3       O      0.66242      0.351239     0.97279     -0.438 
O3       O      0.16242      0.851239     0.97279     -0.438 
O2       O      0.14226      0.36549      0.47747     -0.574 
O2       O      0.64226      0.86549      0.47747     -0.574 
O2       O      0.64226      0.36549      0.97747     -0.574 
O2       O      0.14226      0.86549      0.97747     -0.574 
O2       O      0.14875      0.37448      0.39811     -0.574 
O2       O      0.64875      0.87448      0.39811     -0.574 
O2       O      0.64875      0.37448      0.89811     -0.574 
O2       O      0.14875      0.87448      0.89811     -0.574 
O2       O      0.12708      0.383689     0.40693     -0.574 
O2       O      0.62708      0.883689     0.40693     -0.574 
O2       O      0.62708      0.383689     0.90693     -0.574 
O2       O      0.12708      0.883689     0.90693     -0.574 
O3       O      0.0563796    0.32805      0.440889    -0.438 
O3       O      0.55638      0.82805      0.440889    -0.438 
O3       O      0.55638      0.32805      0.940889    -0.438 
O3       O      0.0563796    0.82805      0.940889    -0.438 
O2       O      0.10161      0.37056      0.39622     -0.574 
O2       O      0.60161      0.87056      0.39622     -0.574 
O2       O      0.60161      0.37056      0.89622     -0.574 
O2       O      0.10161      0.87056      0.89622     -0.574 
O2       O      0.0647695    0.29621      0.47624     -0.574 
O2       O      0.564769     0.79621      0.47624     -0.574 
O2       O      0.564769     0.29621      0.97624     -0.574 
O2       O      0.0647695    0.79621      0.97624     -0.574 
O3       O      0.0607298    0.31945      0.46912     -0.438 
O3       O      0.56073      0.81945      0.46912     -0.438 
O3       O      0.56073      0.31945      0.96912     -0.438 
O3       O      0.0607298    0.81945      0.96912     -0.438 
O2       O      0.63308      0.32278      0.00664011  -0.574 
O2       O      0.13308      0.82278      0.00664011  -0.574 
O2       O      0.13308      0.32278      0.50664     -0.574 
O2       O      0.63308      0.82278      0.50664     -0.574 
O2       O      0.12353      0.34525      0.49662     -0.574 
O2       O      0.62353      0.84525      0.49662     -0.574 
O2       O      0.62353      0.34525      0.99662     -0.574 
O2       O      0.12353      0.84525      0.99662     -0.574 
F1       F      0.1558       0.22474      0.4475      -0.547 
F1       F      0.6558       0.72474      0.4475      -0.547 
F1       F      0.6558       0.22474      0.9475      -0.547 
F1       F      0.1558       0.72474      0.9475      -0.547 
C3       C      0.8705       0.31934      0.39071     -0.058 
C3       C      0.3705       0.81934      0.39071     -0.058 
C3       C      0.3705       0.31934      0.89071     -0.058 
C3       C      0.8705       0.81934      0.89071     -0.058 
C3       C      0.91837      0.49493      0.312       -0.058 
C3       C      0.41837      0.99493      0.312       -0.058 
C3       C      0.41837      0.49493      0.812       -0.058 
C3       C      0.91837      0.99493      0.812       -0.058 
C3       C      0.91494      0.47948      0.3153      -0.058 
C3       C      0.41494      0.97948      0.3153      -0.058 
C3       C      0.41494      0.47948      0.8153      -0.058 
C3       C      0.91494      0.97948      0.8153      -0.058 
C3       C      0.0137697    0.453091     0.24748     -0.058 
C3       C      0.51377      0.953089     0.24748     -0.058 
C3       C      0.51377      0.453091     0.74748     -0.058 
C3       C      0.0137697    0.953089     0.74748     -0.058 
C1       C      0.0240005    0.44264      0.27033      0.496 
C1       C      0.523999     0.94264      0.27033      0.496 
C1       C      0.523999     0.44264      0.770329     0.496 
C1       C      0.0240005    0.94264      0.770329     0.496 
C2       C      0.0124498    0.44264      0.2594      -0.07  
C2       C      0.51245      0.94264      0.2594      -0.07  
C2       C      0.51245      0.44264      0.7594      -0.07  
C2       C      0.0124498    0.94264      0.7594      -0.07  
C3       C      0.00493986   0.42859      0.25632     -0.058 
C3       C      0.50494      0.92859      0.25632     -0.058 
C3       C      0.50494      0.42859      0.75632     -0.058 
C3       C      0.00493986   0.92859      0.75632     -0.058 
C3       C      0.17816      0.29077      0.44769     -0.058 
C3       C      0.67816      0.79077      0.44769     -0.058 
C3       C      0.67816      0.29077      0.94769     -0.058 
C3       C      0.17816      0.79077      0.94769     -0.058 
C1       C      0.16978      0.26544      0.4387       0.496 
C1       C      0.66978      0.76544      0.4387       0.496 
C1       C      0.66978      0.26544      0.9387       0.496 
C1       C      0.16978      0.76544      0.9387       0.496 
C2       C      0.16889      0.277409     0.449819    -0.07  
C2       C      0.66889      0.777409     0.449819    -0.07  
C2       C      0.66889      0.277409     0.949819    -0.07  
C2       C      0.16889      0.777409     0.949819    -0.07  
C3       C      0.1571       0.278029     0.46067     -0.058 
C3       C      0.6571       0.778029     0.46067     -0.058 
C3       C      0.6571       0.278029     0.96067     -0.058 
C3       C      0.1571       0.778029     0.96067     -0.058 
C3       C      0.157959     0.35653      0.44184     -0.058 
C3       C      0.657959     0.85653      0.44184     -0.058 
C3       C      0.657959     0.35653      0.94184     -0.058 
C3       C      0.157959     0.85653      0.94184     -0.058 
C1       C      0.15329      0.36156      0.46908      0.496 
C1       C      0.65329      0.86156      0.46908      0.496 
C1       C      0.65329      0.36156      0.96908      0.496 
C1       C      0.15329      0.86156      0.96908      0.496 
C2       C      0.15109      0.36496      0.45404     -0.07  
C2       C      0.65109      0.86496      0.45404     -0.07  
C2       C      0.65109      0.36496      0.95404     -0.07  
C2       C      0.15109      0.86496      0.95404     -0.07  
C3       C      0.15528      0.36117      0.4269      -0.058 
C3       C      0.65528      0.86117      0.4269      -0.058 
C3       C      0.65528      0.36117      0.9269      -0.058 
C3       C      0.15528      0.86117      0.9269      -0.058 
C1       C      0.1397       0.37691      0.40929      0.496 
C1       C      0.6397       0.87691      0.40929      0.496 
C1       C      0.6397       0.37691      0.90929      0.496 
C1       C      0.1397       0.87691      0.90929      0.496 
C2       C      0.142309     0.3705       0.42411     -0.07  
C2       C      0.642309     0.8705       0.42411     -0.07  
C2       C      0.642309     0.3705       0.92411     -0.07  
C2       C      0.142309     0.8705       0.92411     -0.07  
C3       C      0.13776      0.37254      0.45164     -0.058 
C3       C      0.63776      0.872539     0.45164     -0.058 
C3       C      0.63776      0.37254      0.95164     -0.058 
C3       C      0.13776      0.872539     0.95164     -0.058 
C3       C      0.13418      0.37689      0.4365      -0.058 
C3       C      0.63418      0.87689      0.4365      -0.058 
C3       C      0.63418      0.37689      0.9365      -0.058 
C3       C      0.13418      0.87689      0.9365      -0.058 
C3       C      0.0704903    0.34529      0.42322     -0.058 
C3       C      0.57049      0.84529      0.42322     -0.058 
C3       C      0.57049      0.34529      0.92322     -0.058 
C3       C      0.0704903    0.84529      0.92322     -0.058 
C3       C      0.0819903    0.35355      0.41515     -0.058 
C3       C      0.58199      0.85355      0.41515     -0.058 
C3       C      0.58199      0.35355      0.91515     -0.058 
C3       C      0.0819903    0.85355      0.91515     -0.058 
C3       C      0.0929402    0.304289     0.48645     -0.058 
C3       C      0.59294      0.804289     0.48645     -0.058 
C3       C      0.59294      0.304289     0.98645     -0.058 
C3       C      0.0929402    0.804289     0.98645     -0.058 
C1       C      0.0687       0.30984      0.47536      0.496 
C1       C      0.5687       0.80984      0.47536      0.496 
C1       C      0.5687       0.30984      0.97536      0.496 
C1       C      0.0687       0.80984      0.97536      0.496 
C2       C      0.0821096    0.31482      0.48193     -0.07  
C2       C      0.58211      0.81482      0.48193     -0.07  
C2       C      0.58211      0.31482      0.98193     -0.07  
C2       C      0.0821096    0.81482      0.98193     -0.07  
C3       C      0.10578      0.309239     0.49383     -0.058 
C3       C      0.60578      0.809239     0.49383     -0.058 
C3       C      0.60578      0.309239     0.99383     -0.058 
C3       C      0.10578      0.809239     0.99383     -0.058 
C1       C      0.12253      0.33082      0.49905      0.496 
C1       C      0.62253      0.83082      0.49905      0.496 
C1       C      0.62253      0.33082      0.99905      0.496 
C1       C      0.12253      0.83082      0.99905      0.496 
C2       C      0.10825      0.32478      0.49511     -0.07  
C2       C      0.60825      0.82478      0.49511     -0.07  
C2       C      0.60825      0.32478      0.99511     -0.07  
C2       C      0.10825      0.82478      0.99511     -0.07  
C3       C      0.0851602    0.33032      0.48154     -0.058 
C3       C      0.58516      0.83032      0.48154     -0.058 
C3       C      0.58516      0.33032      0.98154     -0.058 
C3       C      0.0851602    0.83032      0.98154     -0.058 
C3       C      0.0984201    0.33542      0.48829     -0.058 
C3       C      0.59842      0.83542      0.48829     -0.058 
C3       C      0.59842      0.33542      0.98829     -0.058 
C3       C      0.0984201    0.83542      0.98829     -0.058 
H1       H      0.413299     0.000327448  0.302505     0.108 
H1       H      0.913299     0.500327     0.302505     0.108 
H1       H      0.913299     0.000327448  0.802505     0.108 
H1       H      0.413299     0.500327     0.802505     0.108 
H1       H      0.906686     0.473626     0.308789     0.108 
H1       H      0.406686     0.973626     0.308789     0.108 
H1       H      0.406686     0.473626     0.808789     0.108 
H1       H      0.906686     0.973626     0.808789     0.108 
H1       H      0.0677829    0.348268     0.434559     0.108 
H1       H      0.567783     0.848268     0.434559     0.108 
H1       H      0.567783     0.348268     0.934559     0.108 
H1       H      0.0677829    0.848268     0.934559     0.108 
H1       H      0.0858747    0.364128     0.419364     0.108 
H1       H      0.585875     0.864128     0.419364     0.108 
H1       H      0.585875     0.364128     0.919364     0.108 
H1       H      0.0858747    0.864128     0.919364     0.108 
H1       H      0.868168     0.3211       0.402375     0.108 
H1       H      0.368168     0.8211       0.402375     0.108 
H1       H      0.368168     0.3211       0.902375     0.108 
H1       H      0.868168     0.8211       0.902375     0.108 
H1       H      0.0230845    0.460699     0.247154     0.108 
H1       H      0.523085     0.960699     0.247154     0.108 
H1       H      0.523085     0.460699     0.747154     0.108 
H1       H      0.0230845    0.960699     0.747154     0.108 
H1       H      0.0774398    0.337838     0.476187     0.108 
H1       H      0.57744      0.837838     0.476187     0.108 
H1       H      0.57744      0.337838     0.976187     0.108 
H1       H      0.0774398    0.837838     0.976187     0.108 
H1       H      0.10105      0.347174     0.488276     0.108 
H1       H      0.60105      0.847174     0.488276     0.108 
H1       H      0.60105      0.347174     0.988276     0.108 
H1       H      0.10105      0.847174     0.988276     0.108 
H1       H      0.091259     0.292587     0.484203     0.108 
H1       H      0.591259     0.792587     0.484203     0.108 
H1       H      0.591259     0.292587     0.984203     0.108 
H1       H      0.091259     0.792587     0.984203     0.108 
H1       H      0.113551     0.301258     0.498402     0.108 
H1       H      0.613551     0.801258     0.498402     0.108 
H1       H      0.613551     0.301258     0.998402     0.108 
H1       H      0.113551     0.801258     0.998402     0.108 
H1       H      0.18482      0.291948     0.437739     0.108 
H1       H      0.684819     0.791948     0.437739     0.108 
H1       H      0.684819     0.291948     0.937739     0.108 
H1       H      0.18482      0.791948     0.937739     0.108 
H1       H      0.148184     0.269958     0.460334     0.108 
H1       H      0.648184     0.769958     0.460334     0.108 
H1       H      0.648184     0.269958     0.960334     0.108 
H1       H      0.148184     0.769958     0.960334     0.108 
H1       H      0.130481     0.374991     0.460902     0.108 
H1       H      0.630481     0.874991     0.460902     0.108 
H1       H      0.630481     0.374991     0.960902     0.108 
H1       H      0.130481     0.874991     0.960902     0.108 
H1       H      0.12544      0.384905     0.434466     0.108 
H1       H      0.62544      0.884905     0.434466     0.108 
H1       H      0.62544      0.384905     0.934466     0.108 
H1       H      0.12544      0.884905     0.934466     0.108 
H1       H      0.164901     0.347        0.444271     0.108 
H1       H      0.664901     0.847        0.444271     0.108 
H1       H      0.664901     0.347        0.944271     0.108 
H1       H      0.164901     0.847        0.944271     0.108 
H1       H      0.162753     0.357758     0.418109     0.108 
H1       H      0.662753     0.857758     0.418109     0.108 
H1       H      0.662753     0.357758     0.918109     0.108 
H1       H      0.162753     0.857758     0.918109     0.108 
H1       H      0.00795328   0.418685     0.262456     0.108 
H1       H      0.507953     0.918685     0.262456     0.108 
H1       H      0.507953     0.418685     0.762456     0.108 
H1       H      0.00795328   0.918685     0.762456     0.108 
Cr2      Cr     0.59473      0.237089     0.32201      1.35  
Cr2      Cr     0.0947304    0.737089     0.32201      1.35  
Cr2      Cr     0.0947304    0.237089     0.82201      1.35  
Cr2      Cr     0.59473      0.737089     0.82201      1.35  
Cr1      Cr     0.3228       0.0415398    0.45754      1.619 
Cr1      Cr     0.8228       0.54154      0.45754      1.619 
Cr1      Cr     0.8228       0.0415398    0.95754      1.619 
Cr1      Cr     0.3228       0.54154      0.95754      1.619 
O3       O      0.85869      0.31964      0.34018     -0.438 
O3       O      0.35869      0.81964      0.34018     -0.438 
O3       O      0.35869      0.31964      0.840179    -0.438 
O3       O      0.85869      0.81964      0.840179    -0.438 
O2       O      0.3239       0.0235403    0.44413     -0.574 
O2       O      0.8239       0.52354      0.44413     -0.574 
O2       O      0.8239       0.0235403    0.94413     -0.574 
O2       O      0.3239       0.52354      0.94413     -0.574 
O2       O      0.838859     0.4493       0.427369    -0.574 
O2       O      0.338859     0.9493       0.427369    -0.574 
O2       O      0.338859     0.4493       0.927369    -0.574 
O2       O      0.838859     0.9493       0.927369    -0.574 
O2       O      0.72122      0.42932      0.47584     -0.574 
O2       O      0.22122      0.92932      0.47584     -0.574 
O2       O      0.22122      0.42932      0.97584     -0.574 
O2       O      0.72122      0.92932      0.97584     -0.574 
O2       O      0.71763      0.454771     0.47805     -0.574 
O2       O      0.21763      0.954769     0.47805     -0.574 
O2       O      0.21763      0.454771     0.97805     -0.574 
O2       O      0.71763      0.954769     0.97805     -0.574 
O2       O      0.57701      0.26956      0.32439     -0.574 
O2       O      0.07701      0.76956      0.32439     -0.574 
O2       O      0.07701      0.26956      0.82439     -0.574 
O2       O      0.57701      0.76956      0.82439     -0.574 
O3       O      0.58776      0.25308      0.30997     -0.438 
O3       O      0.0877595    0.75308      0.30997     -0.438 
O3       O      0.0877595    0.25308      0.80997     -0.438 
O3       O      0.58776      0.75308      0.80997     -0.438 
O3       O      0.587579     0.351239     0.27721     -0.438 
O3       O      0.0875795    0.851239     0.27721     -0.438 
O3       O      0.0875795    0.351239     0.77721     -0.438 
O3       O      0.587579     0.851239     0.77721     -0.438 
O2       O      0.607739     0.36549      0.27253     -0.574 
O2       O      0.107739     0.86549      0.27253     -0.574 
O2       O      0.107739     0.36549      0.77253     -0.574 
O2       O      0.607739     0.86549      0.77253     -0.574 
O2       O      0.60125      0.37448      0.35189     -0.574 
O2       O      0.10125      0.87448      0.35189     -0.574 
O2       O      0.10125      0.37448      0.85189     -0.574 
O2       O      0.60125      0.87448      0.85189     -0.574 
O3       O      0.62292      0.383689     0.34307     -0.438 
O3       O      0.12292      0.883689     0.34307     -0.438 
O3       O      0.12292      0.383689     0.84307     -0.438 
O3       O      0.62292      0.883689     0.84307     -0.438 
O3       O      0.69362      0.32805      0.30911     -0.438 
O3       O      0.19362      0.82805      0.30911     -0.438 
O3       O      0.19362      0.32805      0.80911     -0.438 
O3       O      0.69362      0.82805      0.80911     -0.438 
O3       O      0.64839      0.37056      0.35378     -0.438 
O3       O      0.14839      0.87056      0.35378     -0.438 
O3       O      0.14839      0.37056      0.85378     -0.438 
O3       O      0.64839      0.87056      0.85378     -0.438 
O2       O      0.68523      0.29621      0.27376     -0.574 
O2       O      0.18523      0.79621      0.27376     -0.574 
O2       O      0.18523      0.29621      0.77376     -0.574 
O2       O      0.68523      0.79621      0.77376     -0.574 
O3       O      0.68927      0.31945      0.28088     -0.438 
O3       O      0.18927      0.81945      0.28088     -0.438 
O3       O      0.18927      0.31945      0.78088     -0.438 
O3       O      0.68927      0.81945      0.78088     -0.438 
O2       O      0.61692      0.32278      0.24336     -0.574 
O2       O      0.11692      0.82278      0.24336     -0.574 
O2       O      0.11692      0.32278      0.74336     -0.574 
O2       O      0.61692      0.82278      0.74336     -0.574 
O2       O      0.62647      0.34525      0.25338     -0.574 
O2       O      0.12647      0.84525      0.25338     -0.574 
O2       O      0.12647      0.34525      0.75338     -0.574 
O2       O      0.62647      0.84525      0.75338     -0.574 
F1       F      0.5942       0.22474      0.3025      -0.547 
F1       F      0.0942005    0.72474      0.3025      -0.547 
F1       F      0.0942005    0.22474      0.8025      -0.547 
F1       F      0.5942       0.72474      0.8025      -0.547 
C3       C      0.8795       0.31934      0.35929     -0.058 
C3       C      0.3795       0.81934      0.35929     -0.058 
C3       C      0.3795       0.31934      0.85929     -0.058 
C3       C      0.8795       0.81934      0.85929     -0.058 
C3       C      0.83163      0.49493      0.438       -0.058 
C3       C      0.33163      0.99493      0.438       -0.058 
C3       C      0.33163      0.49493      0.938       -0.058 
C3       C      0.83163      0.99493      0.938       -0.058 
C3       C      0.835059     0.47948      0.434701    -0.058 
C3       C      0.335059     0.97948      0.434701    -0.058 
C3       C      0.335059     0.47948      0.934699    -0.058 
C3       C      0.835059     0.97948      0.934699    -0.058 
C3       C      0.23623      0.453091     0.00252056  -0.058 
C3       C      0.73623      0.953089     0.00252056  -0.058 
C3       C      0.73623      0.453091     0.502519    -0.058 
C3       C      0.23623      0.953089     0.502519    -0.058 
C1       C      0.726        0.44264      0.47967      0.496 
C1       C      0.226        0.94264      0.47967      0.496 
C1       C      0.226        0.44264      0.97967      0.496 
C1       C      0.726        0.94264      0.97967      0.496 
C2       C      0.73755      0.44264      0.4906      -0.07  
C2       C      0.23755      0.94264      0.4906      -0.07  
C2       C      0.23755      0.44264      0.9906      -0.07  
C2       C      0.73755      0.94264      0.9906      -0.07  
C3       C      0.74506      0.42859      0.493679    -0.058 
C3       C      0.24506      0.92859      0.493679    -0.058 
C3       C      0.24506      0.42859      0.993679    -0.058 
C3       C      0.74506      0.92859      0.993679    -0.058 
C3       C      0.571839     0.29077      0.30231     -0.058 
C3       C      0.0718394    0.79077      0.30231     -0.058 
C3       C      0.0718394    0.29077      0.80231     -0.058 
C3       C      0.571839     0.79077      0.80231     -0.058 
C1       C      0.58022      0.26544      0.3113       0.496 
C1       C      0.0802203    0.76544      0.3113       0.496 
C1       C      0.0802203    0.26544      0.8113       0.496 
C1       C      0.58022      0.76544      0.8113       0.496 
C2       C      0.58111      0.277409     0.30018     -0.07  
C2       C      0.0811104    0.777409     0.30018     -0.07  
C2       C      0.0811104    0.277409     0.80018     -0.07  
C2       C      0.58111      0.777409     0.80018     -0.07  
C3       C      0.5929       0.278029     0.28933     -0.058 
C3       C      0.0928997    0.778029     0.28933     -0.058 
C3       C      0.0928997    0.278029     0.78933     -0.058 
C3       C      0.5929       0.778029     0.78933     -0.058 
C3       C      0.59204      0.35653      0.30816     -0.058 
C3       C      0.09204      0.85653      0.30816     -0.058 
C3       C      0.09204      0.35653      0.80816     -0.058 
C3       C      0.59204      0.85653      0.80816     -0.058 
C1       C      0.59671      0.36156      0.28092      0.496 
C1       C      0.0967098    0.86156      0.28092      0.496 
C1       C      0.0967098    0.36156      0.78092      0.496 
C1       C      0.59671      0.86156      0.78092      0.496 
C2       C      0.59891      0.36496      0.29596     -0.07  
C2       C      0.0989096    0.86496      0.29596     -0.07  
C2       C      0.0989096    0.36496      0.79596     -0.07  
C2       C      0.59891      0.86496      0.79596     -0.07  
C3       C      0.59472      0.36117      0.3231      -0.058 
C3       C      0.0947203    0.86117      0.3231      -0.058 
C3       C      0.0947203    0.36117      0.8231      -0.058 
C3       C      0.59472      0.86117      0.8231      -0.058 
C1       C      0.610299     0.37691      0.34071      0.496 
C1       C      0.110299     0.87691      0.34071      0.496 
C1       C      0.110299     0.37691      0.840709     0.496 
C1       C      0.610299     0.87691      0.840709     0.496 
C2       C      0.60769      0.3705       0.32589     -0.07  
C2       C      0.10769      0.8705       0.32589     -0.07  
C2       C      0.10769      0.3705       0.82589     -0.07  
C2       C      0.60769      0.8705       0.82589     -0.07  
C3       C      0.612239     0.37254      0.298361    -0.058 
C3       C      0.11224      0.872539     0.298361    -0.058 
C3       C      0.11224      0.37254      0.798359    -0.058 
C3       C      0.612239     0.872539     0.798359    -0.058 
C3       C      0.61582      0.37689      0.3135      -0.058 
C3       C      0.11582      0.87689      0.3135      -0.058 
C3       C      0.11582      0.37689      0.8135      -0.058 
C3       C      0.61582      0.87689      0.8135      -0.058 
C3       C      0.67951      0.34529      0.32678     -0.058 
C3       C      0.17951      0.84529      0.32678     -0.058 
C3       C      0.17951      0.34529      0.82678     -0.058 
C3       C      0.67951      0.84529      0.82678     -0.058 
C3       C      0.66801      0.35355      0.33485     -0.058 
C3       C      0.16801      0.85355      0.33485     -0.058 
C3       C      0.16801      0.35355      0.83485     -0.058 
C3       C      0.66801      0.85355      0.83485     -0.058 
C3       C      0.65706      0.304289     0.26355     -0.058 
C3       C      0.15706      0.804289     0.26355     -0.058 
C3       C      0.15706      0.304289     0.76355     -0.058 
C3       C      0.65706      0.804289     0.76355     -0.058 
C1       C      0.681299     0.30984      0.27464      0.496 
C1       C      0.181299     0.80984      0.27464      0.496 
C1       C      0.181299     0.30984      0.77464      0.496 
C1       C      0.681299     0.80984      0.77464      0.496 
C2       C      0.66789      0.31482      0.26807     -0.07  
C2       C      0.16789      0.81482      0.26807     -0.07  
C2       C      0.16789      0.31482      0.76807     -0.07  
C2       C      0.66789      0.81482      0.76807     -0.07  
C3       C      0.64422      0.309239     0.25617     -0.058 
C3       C      0.14422      0.809239     0.25617     -0.058 
C3       C      0.14422      0.309239     0.75617     -0.058 
C3       C      0.64422      0.809239     0.75617     -0.058 
C1       C      0.62747      0.33082      0.25095      0.496 
C1       C      0.12747      0.83082      0.25095      0.496 
C1       C      0.12747      0.33082      0.75095      0.496 
C1       C      0.62747      0.83082      0.75095      0.496 
C2       C      0.64175      0.32478      0.25489     -0.07  
C2       C      0.14175      0.82478      0.25489     -0.07  
C2       C      0.14175      0.32478      0.75489     -0.07  
C2       C      0.64175      0.82478      0.75489     -0.07  
C3       C      0.66484      0.33032      0.26846     -0.058 
C3       C      0.16484      0.83032      0.26846     -0.058 
C3       C      0.16484      0.33032      0.76846     -0.058 
C3       C      0.66484      0.83032      0.76846     -0.058 
C3       C      0.65158      0.33542      0.26171     -0.058 
C3       C      0.15158      0.83542      0.26171     -0.058 
C3       C      0.15158      0.33542      0.76171     -0.058 
C3       C      0.65158      0.83542      0.76171     -0.058 
H1       H      0.3367       0.000327448  0.447495     0.108 
H1       H      0.8367       0.500327     0.447495     0.108 
H1       H      0.8367       0.000327448  0.947495     0.108 
H1       H      0.3367       0.500327     0.947495     0.108 
H1       H      0.843313     0.473626     0.44121      0.108 
H1       H      0.343313     0.973626     0.44121      0.108 
H1       H      0.343313     0.473626     0.94121      0.108 
H1       H      0.843313     0.973626     0.94121      0.108 
H1       H      0.682218     0.348268     0.315441     0.108 
H1       H      0.182218     0.848268     0.315441     0.108 
H1       H      0.182218     0.348268     0.815441     0.108 
H1       H      0.682218     0.848268     0.815441     0.108 
H1       H      0.664125     0.364128     0.330635     0.108 
H1       H      0.164125     0.864128     0.330635     0.108 
H1       H      0.164125     0.364128     0.830635     0.108 
H1       H      0.664125     0.864128     0.830635     0.108 
H1       H      0.881832     0.3211       0.347624     0.108 
H1       H      0.381832     0.8211       0.347624     0.108 
H1       H      0.381832     0.3211       0.847624     0.108 
H1       H      0.881832     0.8211       0.847624     0.108 
H1       H      0.226915     0.460699     0.00284576   0.108 
H1       H      0.726915     0.960699     0.00284576   0.108 
H1       H      0.726915     0.460699     0.502846     0.108 
H1       H      0.226915     0.960699     0.502846     0.108 
H1       H      0.672561     0.337838     0.273812     0.108 
H1       H      0.172561     0.837838     0.273812     0.108 
H1       H      0.172561     0.337838     0.773812     0.108 
H1       H      0.672561     0.837838     0.773812     0.108 
H1       H      0.64895      0.347174     0.261723     0.108 
H1       H      0.14895      0.847174     0.261723     0.108 
H1       H      0.14895      0.347174     0.761723     0.108 
H1       H      0.64895      0.847174     0.761723     0.108 
H1       H      0.65874      0.292587     0.265798     0.108 
H1       H      0.15874      0.792587     0.265798     0.108 
H1       H      0.15874      0.292587     0.765797     0.108 
H1       H      0.65874      0.792587     0.765797     0.108 
H1       H      0.636449     0.301258     0.251598     0.108 
H1       H      0.136449     0.801258     0.251598     0.108 
H1       H      0.136449     0.301258     0.751598     0.108 
H1       H      0.636449     0.801258     0.751598     0.108 
H1       H      0.56518      0.291948     0.312261     0.108 
H1       H      0.0651802    0.791948     0.312261     0.108 
H1       H      0.0651802    0.291948     0.812261     0.108 
H1       H      0.56518      0.791948     0.812261     0.108 
H1       H      0.601816     0.269958     0.289666     0.108 
H1       H      0.101816     0.769958     0.289666     0.108 
H1       H      0.101816     0.269958     0.789666     0.108 
H1       H      0.601816     0.769958     0.789666     0.108 
H1       H      0.619519     0.374991     0.289099     0.108 
H1       H      0.119519     0.874991     0.289099     0.108 
H1       H      0.119519     0.374991     0.789099     0.108 
H1       H      0.619519     0.874991     0.789099     0.108 
H1       H      0.624561     0.384905     0.315533     0.108 
H1       H      0.124561     0.884905     0.315533     0.108 
H1       H      0.124561     0.384905     0.815533     0.108 
H1       H      0.624561     0.884905     0.815533     0.108 
H1       H      0.585098     0.347        0.305729     0.108 
H1       H      0.0850983    0.847        0.305729     0.108 
H1       H      0.0850983    0.347        0.805729     0.108 
H1       H      0.585098     0.847        0.805729     0.108 
H1       H      0.587248     0.357758     0.331891     0.108 
H1       H      0.0872475    0.857758     0.331891     0.108 
H1       H      0.0872475    0.357758     0.831891     0.108 
H1       H      0.587248     0.857758     0.831891     0.108 
H1       H      0.742047     0.418685     0.487543     0.108 
H1       H      0.242047     0.918685     0.487543     0.108 
H1       H      0.242047     0.418685     0.987543     0.108 
H1       H      0.742047     0.918685     0.987543     0.108 
Cr2      Cr     0.0947304    0.01291      0.42799      1.35  
Cr2      Cr     0.59473      0.51291      0.42799      1.35  
Cr2      Cr     0.59473      0.01291      0.92799      1.35  
Cr2      Cr     0.0947304    0.51291      0.92799      1.35  
Cr1      Cr     0.8228       0.20846      0.29246      1.619 
Cr1      Cr     0.3228       0.70846      0.29246      1.619 
Cr1      Cr     0.3228       0.20846      0.79246      1.619 
Cr1      Cr     0.8228       0.70846      0.79246      1.619 
O2       O      0.85869      0.43036      0.40982     -0.574 
O2       O      0.35869      0.93036      0.40982     -0.574 
O2       O      0.35869      0.43036      0.90982     -0.574 
O2       O      0.85869      0.93036      0.90982     -0.574 
O2       O      0.8239       0.22646      0.30587     -0.574 
O2       O      0.3239       0.72646      0.30587     -0.574 
O2       O      0.3239       0.22646      0.80587     -0.574 
O2       O      0.8239       0.72646      0.80587     -0.574 
O3       O      0.838859     0.3007       0.32263     -0.438 
O3       O      0.338859     0.8007       0.32263     -0.438 
O3       O      0.338859     0.3007       0.82263     -0.438 
O3       O      0.838859     0.8007       0.82263     -0.438 
O3       O      0.72122      0.32068      0.27416     -0.438 
O3       O      0.22122      0.82068      0.27416     -0.438 
O3       O      0.22122      0.32068      0.77416     -0.438 
O3       O      0.72122      0.82068      0.77416     -0.438 
O2       O      0.71763      0.29523      0.27195     -0.574 
O2       O      0.21763      0.79523      0.27195     -0.574 
O2       O      0.21763      0.29523      0.77195     -0.574 
O2       O      0.71763      0.79523      0.77195     -0.574 
O2       O      0.57701      0.48044      0.42561     -0.574 
O2       O      0.07701      0.98044      0.42561     -0.574 
O2       O      0.07701      0.48044      0.92561     -0.574 
O2       O      0.57701      0.98044      0.92561     -0.574 
O3       O      0.58776      0.49692      0.44003     -0.438 
O3       O      0.0877595    0.99692      0.44003     -0.438 
O3       O      0.0877595    0.49692      0.94003     -0.438 
O3       O      0.58776      0.99692      0.94003     -0.438 
O3       O      0.587579     0.39876      0.47279     -0.438 
O3       O      0.0875795    0.89876      0.47279     -0.438 
O3       O      0.0875795    0.39876      0.97279     -0.438 
O3       O      0.587579     0.89876      0.97279     -0.438 
O2       O      0.607739     0.38451      0.47747     -0.574 
O2       O      0.107739     0.88451      0.47747     -0.574 
O2       O      0.107739     0.38451      0.97747     -0.574 
O2       O      0.607739     0.88451      0.97747     -0.574 
O2       O      0.60125      0.37552      0.39811     -0.574 
O2       O      0.10125      0.87552      0.39811     -0.574 
O2       O      0.10125      0.37552      0.89811     -0.574 
O2       O      0.60125      0.87552      0.89811     -0.574 
O2       O      0.62292      0.36631      0.40693     -0.574 
O2       O      0.12292      0.86631      0.40693     -0.574 
O2       O      0.12292      0.36631      0.90693     -0.574 
O2       O      0.62292      0.86631      0.90693     -0.574 
O2       O      0.69362      0.42195      0.440889    -0.574 
O2       O      0.19362      0.92195      0.440889    -0.574 
O2       O      0.19362      0.42195      0.940889    -0.574 
O2       O      0.69362      0.92195      0.940889    -0.574 
O2       O      0.64839      0.379439     0.39622     -0.574 
O2       O      0.14839      0.879439     0.39622     -0.574 
O2       O      0.14839      0.379439     0.89622     -0.574 
O2       O      0.64839      0.879439     0.89622     -0.574 
O2       O      0.68523      0.45379      0.47624     -0.574 
O2       O      0.18523      0.95379      0.47624     -0.574 
O2       O      0.18523      0.45379      0.97624     -0.574 
O2       O      0.68523      0.95379      0.97624     -0.574 
O2       O      0.68927      0.430549     0.46912     -0.574 
O2       O      0.18927      0.930549     0.46912     -0.574 
O2       O      0.18927      0.430549     0.96912     -0.574 
O2       O      0.68927      0.930549     0.96912     -0.574 
O2       O      0.11692      0.42722      0.00664011  -0.574 
O2       O      0.61692      0.92722      0.00664011  -0.574 
O2       O      0.61692      0.42722      0.50664     -0.574 
O2       O      0.11692      0.92722      0.50664     -0.574 
O2       O      0.62647      0.40475      0.49662     -0.574 
O2       O      0.12647      0.90475      0.49662     -0.574 
O2       O      0.12647      0.40475      0.99662     -0.574 
O2       O      0.62647      0.90475      0.99662     -0.574 
F1       F      0.0942005    0.0252597    0.4475      -0.547 
F1       F      0.5942       0.52526      0.4475      -0.547 
F1       F      0.5942       0.0252597    0.9475      -0.547 
F1       F      0.0942005    0.52526      0.9475      -0.547 
C3       C      0.8795       0.43066      0.39071     -0.058 
C3       C      0.3795       0.93066      0.39071     -0.058 
C3       C      0.3795       0.43066      0.89071     -0.058 
C3       C      0.8795       0.93066      0.89071     -0.058 
C3       C      0.83163      0.25507      0.312       -0.058 
C3       C      0.33163      0.75507      0.312       -0.058 
C3       C      0.33163      0.25507      0.812       -0.058 
C3       C      0.83163      0.75507      0.812       -0.058 
C3       C      0.835059     0.27052      0.3153      -0.058 
C3       C      0.335059     0.77052      0.3153      -0.058 
C3       C      0.335059     0.27052      0.8153      -0.058 
C3       C      0.835059     0.77052      0.8153      -0.058 
C3       C      0.73623      0.29691      0.24748     -0.058 
C3       C      0.23623      0.79691      0.24748     -0.058 
C3       C      0.23623      0.29691      0.74748     -0.058 
C3       C      0.73623      0.79691      0.74748     -0.058 
C1       C      0.726        0.30736      0.27033      0.496 
C1       C      0.226        0.80736      0.27033      0.496 
C1       C      0.226        0.30736      0.770329     0.496 
C1       C      0.726        0.80736      0.770329     0.496 
C2       C      0.73755      0.30736      0.2594      -0.07  
C2       C      0.23755      0.80736      0.2594      -0.07  
C2       C      0.23755      0.30736      0.7594      -0.07  
C2       C      0.73755      0.80736      0.7594      -0.07  
C3       C      0.74506      0.32141      0.25632     -0.058 
C3       C      0.24506      0.82141      0.25632     -0.058 
C3       C      0.24506      0.32141      0.75632     -0.058 
C3       C      0.74506      0.82141      0.75632     -0.058 
C3       C      0.571839     0.45923      0.44769     -0.058 
C3       C      0.0718394    0.95923      0.44769     -0.058 
C3       C      0.0718394    0.45923      0.94769     -0.058 
C3       C      0.571839     0.95923      0.94769     -0.058 
C1       C      0.58022      0.48456      0.4387       0.496 
C1       C      0.0802203    0.984559     0.4387       0.496 
C1       C      0.0802203    0.48456      0.9387       0.496 
C1       C      0.58022      0.984559     0.9387       0.496 
C2       C      0.58111      0.47259      0.449819    -0.07  
C2       C      0.0811104    0.97259      0.449819    -0.07  
C2       C      0.0811104    0.47259      0.949819    -0.07  
C2       C      0.58111      0.97259      0.949819    -0.07  
C3       C      0.5929       0.47197      0.46067     -0.058 
C3       C      0.0928997    0.97197      0.46067     -0.058 
C3       C      0.0928997    0.47197      0.96067     -0.058 
C3       C      0.5929       0.97197      0.96067     -0.058 
C3       C      0.59204      0.39347      0.44184     -0.058 
C3       C      0.09204      0.89347      0.44184     -0.058 
C3       C      0.09204      0.39347      0.94184     -0.058 
C3       C      0.59204      0.89347      0.94184     -0.058 
C1       C      0.59671      0.38844      0.46908      0.496 
C1       C      0.0967098    0.88844      0.46908      0.496 
C1       C      0.0967098    0.38844      0.96908      0.496 
C1       C      0.59671      0.88844      0.96908      0.496 
C2       C      0.59891      0.38504      0.45404     -0.07  
C2       C      0.0989096    0.88504      0.45404     -0.07  
C2       C      0.0989096    0.38504      0.95404     -0.07  
C2       C      0.59891      0.88504      0.95404     -0.07  
C3       C      0.59472      0.38883      0.4269      -0.058 
C3       C      0.0947203    0.88883      0.4269      -0.058 
C3       C      0.0947203    0.38883      0.9269      -0.058 
C3       C      0.59472      0.88883      0.9269      -0.058 
C1       C      0.610299     0.37309      0.40929      0.496 
C1       C      0.110299     0.87309      0.40929      0.496 
C1       C      0.110299     0.37309      0.90929      0.496 
C1       C      0.610299     0.87309      0.90929      0.496 
C2       C      0.60769      0.3795       0.42411     -0.07  
C2       C      0.10769      0.8795       0.42411     -0.07  
C2       C      0.10769      0.3795       0.92411     -0.07  
C2       C      0.60769      0.8795       0.92411     -0.07  
C3       C      0.612239     0.37746      0.45164     -0.058 
C3       C      0.11224      0.87746      0.45164     -0.058 
C3       C      0.11224      0.37746      0.95164     -0.058 
C3       C      0.612239     0.87746      0.95164     -0.058 
C3       C      0.61582      0.37311      0.4365      -0.058 
C3       C      0.11582      0.87311      0.4365      -0.058 
C3       C      0.11582      0.37311      0.9365      -0.058 
C3       C      0.61582      0.87311      0.9365      -0.058 
C3       C      0.67951      0.40471      0.42322     -0.058 
C3       C      0.17951      0.90471      0.42322     -0.058 
C3       C      0.17951      0.40471      0.92322     -0.058 
C3       C      0.67951      0.90471      0.92322     -0.058 
C3       C      0.66801      0.39645      0.41515     -0.058 
C3       C      0.16801      0.89645      0.41515     -0.058 
C3       C      0.16801      0.39645      0.91515     -0.058 
C3       C      0.66801      0.89645      0.91515     -0.058 
C3       C      0.65706      0.44571      0.48645     -0.058 
C3       C      0.15706      0.94571      0.48645     -0.058 
C3       C      0.15706      0.44571      0.98645     -0.058 
C3       C      0.65706      0.94571      0.98645     -0.058 
C1       C      0.681299     0.44016      0.47536      0.496 
C1       C      0.181299     0.94016      0.47536      0.496 
C1       C      0.181299     0.44016      0.97536      0.496 
C1       C      0.681299     0.94016      0.97536      0.496 
C2       C      0.66789      0.43518      0.48193     -0.07  
C2       C      0.16789      0.93518      0.48193     -0.07  
C2       C      0.16789      0.43518      0.98193     -0.07  
C2       C      0.66789      0.93518      0.98193     -0.07  
C3       C      0.64422      0.44076      0.49383     -0.058 
C3       C      0.14422      0.94076      0.49383     -0.058 
C3       C      0.14422      0.44076      0.99383     -0.058 
C3       C      0.64422      0.94076      0.99383     -0.058 
C1       C      0.62747      0.41918      0.49905      0.496 
C1       C      0.12747      0.91918      0.49905      0.496 
C1       C      0.12747      0.41918      0.99905      0.496 
C1       C      0.62747      0.91918      0.99905      0.496 
C2       C      0.64175      0.42522      0.49511     -0.07  
C2       C      0.14175      0.92522      0.49511     -0.07  
C2       C      0.14175      0.42522      0.99511     -0.07  
C2       C      0.64175      0.92522      0.99511     -0.07  
C3       C      0.66484      0.41968      0.48154     -0.058 
C3       C      0.16484      0.91968      0.48154     -0.058 
C3       C      0.16484      0.41968      0.98154     -0.058 
C3       C      0.66484      0.91968      0.98154     -0.058 
C3       C      0.65158      0.41458      0.48829     -0.058 
C3       C      0.15158      0.91458      0.48829     -0.058 
C3       C      0.15158      0.41458      0.98829     -0.058 
C3       C      0.65158      0.91458      0.98829     -0.058 
H1       H      0.8367       0.249672     0.302505     0.108 
H1       H      0.3367       0.749672     0.302505     0.108 
H1       H      0.3367       0.249672     0.802505     0.108 
H1       H      0.8367       0.749672     0.802505     0.108 
H1       H      0.843313     0.276373     0.308789     0.108 
H1       H      0.343313     0.776373     0.308789     0.108 
H1       H      0.343313     0.276373     0.808789     0.108 
H1       H      0.843313     0.776373     0.808789     0.108 
H1       H      0.682218     0.401732     0.434559     0.108 
H1       H      0.182218     0.901732     0.434559     0.108 
H1       H      0.182218     0.401732     0.934559     0.108 
H1       H      0.682218     0.901732     0.934559     0.108 
H1       H      0.664125     0.385871     0.419364     0.108 
H1       H      0.164125     0.885871     0.419364     0.108 
H1       H      0.164125     0.385871     0.919364     0.108 
H1       H      0.664125     0.885871     0.919364     0.108 
H1       H      0.881832     0.428901     0.402375     0.108 
H1       H      0.381832     0.928901     0.402375     0.108 
H1       H      0.381832     0.428901     0.902375     0.108 
H1       H      0.881832     0.928901     0.902375     0.108 
H1       H      0.726915     0.289301     0.247154     0.108 
H1       H      0.226915     0.789301     0.247154     0.108 
H1       H      0.226915     0.289301     0.747154     0.108 
H1       H      0.726915     0.789301     0.747154     0.108 
H1       H      0.672561     0.412162     0.476187     0.108 
H1       H      0.172561     0.912162     0.476187     0.108 
H1       H      0.172561     0.412162     0.976187     0.108 
H1       H      0.672561     0.912162     0.976187     0.108 
H1       H      0.64895      0.402826     0.488276     0.108 
H1       H      0.14895      0.902826     0.488276     0.108 
H1       H      0.14895      0.402826     0.988276     0.108 
H1       H      0.64895      0.902826     0.988276     0.108 
H1       H      0.65874      0.457414     0.484203     0.108 
H1       H      0.15874      0.957414     0.484203     0.108 
H1       H      0.15874      0.457414     0.984203     0.108 
H1       H      0.65874      0.957414     0.984203     0.108 
H1       H      0.636449     0.448741     0.498402     0.108 
H1       H      0.136449     0.948741     0.498402     0.108 
H1       H      0.136449     0.448741     0.998402     0.108 
H1       H      0.636449     0.948741     0.998402     0.108 
H1       H      0.56518      0.458053     0.437739     0.108 
H1       H      0.0651802    0.958053     0.437739     0.108 
H1       H      0.0651802    0.458053     0.937739     0.108 
H1       H      0.56518      0.958053     0.937739     0.108 
H1       H      0.601816     0.480043     0.460334     0.108 
H1       H      0.101816     0.980043     0.460334     0.108 
H1       H      0.101816     0.480043     0.960334     0.108 
H1       H      0.601816     0.980043     0.960334     0.108 
H1       H      0.619519     0.375009     0.460902     0.108 
H1       H      0.119519     0.875009     0.460902     0.108 
H1       H      0.119519     0.375009     0.960902     0.108 
H1       H      0.619519     0.875009     0.960902     0.108 
H1       H      0.624561     0.365095     0.434466     0.108 
H1       H      0.124561     0.865095     0.434466     0.108 
H1       H      0.124561     0.365095     0.934466     0.108 
H1       H      0.624561     0.865095     0.934466     0.108 
H1       H      0.585098     0.403        0.444271     0.108 
H1       H      0.0850983    0.903        0.444271     0.108 
H1       H      0.0850983    0.403        0.944271     0.108 
H1       H      0.585098     0.903        0.944271     0.108 
H1       H      0.587248     0.392241     0.418109     0.108 
H1       H      0.0872475    0.892241     0.418109     0.108 
H1       H      0.0872475    0.392241     0.918109     0.108 
H1       H      0.587248     0.892241     0.918109     0.108 
H1       H      0.742047     0.331316     0.262456     0.108 
H1       H      0.242047     0.831316     0.262456     0.108 
H1       H      0.242047     0.331316     0.762456     0.108 
H1       H      0.742047     0.831316     0.762456     0.108 
Cr1      Cr     0.65527      0.01291      0.32201      1.619 
Cr1      Cr     0.15527      0.51291      0.32201      1.619 
Cr1      Cr     0.15527      0.01291      0.82201      1.619 
Cr1      Cr     0.65527      0.51291      0.82201      1.619 
Cr1      Cr     0.9272       0.20846      0.45754      1.619 
Cr1      Cr     0.4272       0.70846      0.45754      1.619 
Cr1      Cr     0.4272       0.20846      0.95754      1.619 
Cr1      Cr     0.9272       0.70846      0.95754      1.619 
O3       O      0.89131      0.43036      0.34018     -0.438 
O3       O      0.39131      0.93036      0.34018     -0.438 
O3       O      0.39131      0.43036      0.840179    -0.438 
O3       O      0.89131      0.93036      0.840179    -0.438 
O2       O      0.9261       0.22646      0.44413     -0.574 
O2       O      0.4261       0.72646      0.44413     -0.574 
O2       O      0.4261       0.22646      0.94413     -0.574 
O2       O      0.9261       0.72646      0.94413     -0.574 
O3       O      0.91114      0.3007       0.427369    -0.438 
O3       O      0.41114      0.8007       0.427369    -0.438 
O3       O      0.41114      0.3007       0.927369    -0.438 
O3       O      0.91114      0.8007       0.927369    -0.438 
O3       O      0.0287794    0.32068      0.47584     -0.438 
O3       O      0.528779     0.82068      0.47584     -0.438 
O3       O      0.528779     0.32068      0.97584     -0.438 
O3       O      0.0287794    0.82068      0.97584     -0.438 
O2       O      0.0323701    0.29523      0.47805     -0.574 
O2       O      0.53237      0.79523      0.47805     -0.574 
O2       O      0.53237      0.29523      0.97805     -0.574 
O2       O      0.0323701    0.79523      0.97805     -0.574 
O3       O      0.172989     0.48044      0.32439     -0.438 
O3       O      0.672989     0.98044      0.32439     -0.438 
O3       O      0.672989     0.48044      0.82439     -0.438 
O3       O      0.172989     0.98044      0.82439     -0.438 
O2       O      0.16224      0.49692      0.30997     -0.574 
O2       O      0.66224      0.99692      0.30997     -0.574 
O2       O      0.66224      0.49692      0.80997     -0.574 
O2       O      0.16224      0.99692      0.80997     -0.574 
O2       O      0.16242      0.39876      0.27721     -0.574 
O2       O      0.66242      0.89876      0.27721     -0.574 
O2       O      0.66242      0.39876      0.77721     -0.574 
O2       O      0.16242      0.89876      0.77721     -0.574 
O2       O      0.14226      0.38451      0.27253     -0.574 
O2       O      0.64226      0.88451      0.27253     -0.574 
O2       O      0.64226      0.38451      0.77253     -0.574 
O2       O      0.14226      0.88451      0.77253     -0.574 
O2       O      0.14875      0.37552      0.35189     -0.574 
O2       O      0.64875      0.87552      0.35189     -0.574 
O2       O      0.64875      0.37552      0.85189     -0.574 
O2       O      0.14875      0.87552      0.85189     -0.574 
O3       O      0.12708      0.36631      0.34307     -0.438 
O3       O      0.62708      0.86631      0.34307     -0.438 
O3       O      0.62708      0.36631      0.84307     -0.438 
O3       O      0.12708      0.86631      0.84307     -0.438 
O2       O      0.0563796    0.42195      0.30911     -0.574 
O2       O      0.55638      0.92195      0.30911     -0.574 
O2       O      0.55638      0.42195      0.80911     -0.574 
O2       O      0.0563796    0.92195      0.80911     -0.574 
O3       O      0.10161      0.379439     0.35378     -0.438 
O3       O      0.60161      0.879439     0.35378     -0.438 
O3       O      0.60161      0.379439     0.85378     -0.438 
O3       O      0.10161      0.879439     0.85378     -0.438 
O2       O      0.0647695    0.45379      0.27376     -0.574 
O2       O      0.564769     0.95379      0.27376     -0.574 
O2       O      0.564769     0.45379      0.77376     -0.574 
O2       O      0.0647695    0.95379      0.77376     -0.574 
O2       O      0.0607298    0.430549     0.28088     -0.574 
O2       O      0.56073      0.930549     0.28088     -0.574 
O2       O      0.56073      0.430549     0.78088     -0.574 
O2       O      0.0607298    0.930549     0.78088     -0.574 
O3       O      0.13308      0.42722      0.24336     -0.438 
O3       O      0.63308      0.92722      0.24336     -0.438 
O3       O      0.63308      0.42722      0.74336     -0.438 
O3       O      0.13308      0.92722      0.74336     -0.438 
O2       O      0.12353      0.40475      0.25338     -0.574 
O2       O      0.62353      0.90475      0.25338     -0.574 
O2       O      0.62353      0.40475      0.75338     -0.574 
O2       O      0.12353      0.90475      0.75338     -0.574 
C3       C      0.8705       0.43066      0.35929     -0.058 
C3       C      0.3705       0.93066      0.35929     -0.058 
C3       C      0.3705       0.43066      0.85929     -0.058 
C3       C      0.8705       0.93066      0.85929     -0.058 
C3       C      0.91837      0.25507      0.438       -0.058 
C3       C      0.41837      0.75507      0.438       -0.058 
C3       C      0.41837      0.25507      0.938       -0.058 
C3       C      0.91837      0.75507      0.938       -0.058 
C3       C      0.91494      0.27052      0.434701    -0.058 
C3       C      0.41494      0.77052      0.434701    -0.058 
C3       C      0.41494      0.27052      0.934699    -0.058 
C3       C      0.91494      0.77052      0.934699    -0.058 
C3       C      0.51377      0.29691      0.00252056  -0.058 
C3       C      0.0137697    0.79691      0.00252056  -0.058 
C3       C      0.0137697    0.29691      0.502519    -0.058 
C3       C      0.51377      0.79691      0.502519    -0.058 
C1       C      0.0240005    0.30736      0.47967      0.496 
C1       C      0.523999     0.80736      0.47967      0.496 
C1       C      0.523999     0.30736      0.97967      0.496 
C1       C      0.0240005    0.80736      0.97967      0.496 
C2       C      0.0124498    0.30736      0.4906      -0.07  
C2       C      0.51245      0.80736      0.4906      -0.07  
C2       C      0.51245      0.30736      0.9906      -0.07  
C2       C      0.0124498    0.80736      0.9906      -0.07  
C3       C      0.00493986   0.32141      0.493679    -0.058 
C3       C      0.50494      0.82141      0.493679    -0.058 
C3       C      0.50494      0.32141      0.993679    -0.058 
C3       C      0.00493986   0.82141      0.993679    -0.058 
C3       C      0.17816      0.45923      0.30231     -0.058 
C3       C      0.67816      0.95923      0.30231     -0.058 
C3       C      0.67816      0.45923      0.80231     -0.058 
C3       C      0.17816      0.95923      0.80231     -0.058 
C1       C      0.16978      0.48456      0.3113       0.496 
C1       C      0.66978      0.984559     0.3113       0.496 
C1       C      0.66978      0.48456      0.8113       0.496 
C1       C      0.16978      0.984559     0.8113       0.496 
C2       C      0.16889      0.47259      0.30018     -0.07  
C2       C      0.66889      0.97259      0.30018     -0.07  
C2       C      0.66889      0.47259      0.80018     -0.07  
C2       C      0.16889      0.97259      0.80018     -0.07  
C3       C      0.1571       0.47197      0.28933     -0.058 
C3       C      0.6571       0.97197      0.28933     -0.058 
C3       C      0.6571       0.47197      0.78933     -0.058 
C3       C      0.1571       0.97197      0.78933     -0.058 
C3       C      0.157959     0.39347      0.30816     -0.058 
C3       C      0.657959     0.89347      0.30816     -0.058 
C3       C      0.657959     0.39347      0.80816     -0.058 
C3       C      0.157959     0.89347      0.80816     -0.058 
C1       C      0.15329      0.38844      0.28092      0.496 
C1       C      0.65329      0.88844      0.28092      0.496 
C1       C      0.65329      0.38844      0.78092      0.496 
C1       C      0.15329      0.88844      0.78092      0.496 
C2       C      0.15109      0.38504      0.29596     -0.07  
C2       C      0.65109      0.88504      0.29596     -0.07  
C2       C      0.65109      0.38504      0.79596     -0.07  
C2       C      0.15109      0.88504      0.79596     -0.07  
C3       C      0.15528      0.38883      0.3231      -0.058 
C3       C      0.65528      0.88883      0.3231      -0.058 
C3       C      0.65528      0.38883      0.8231      -0.058 
C3       C      0.15528      0.88883      0.8231      -0.058 
C1       C      0.1397       0.37309      0.34071      0.496 
C1       C      0.6397       0.87309      0.34071      0.496 
C1       C      0.6397       0.37309      0.840709     0.496 
C1       C      0.1397       0.87309      0.840709     0.496 
C2       C      0.142309     0.3795       0.32589     -0.07  
C2       C      0.642309     0.8795       0.32589     -0.07  
C2       C      0.642309     0.3795       0.82589     -0.07  
C2       C      0.142309     0.8795       0.82589     -0.07  
C3       C      0.13776      0.37746      0.298361    -0.058 
C3       C      0.63776      0.87746      0.298361    -0.058 
C3       C      0.63776      0.37746      0.798359    -0.058 
C3       C      0.13776      0.87746      0.798359    -0.058 
C3       C      0.13418      0.37311      0.3135      -0.058 
C3       C      0.63418      0.87311      0.3135      -0.058 
C3       C      0.63418      0.37311      0.8135      -0.058 
C3       C      0.13418      0.87311      0.8135      -0.058 
C3       C      0.0704903    0.40471      0.32678     -0.058 
C3       C      0.57049      0.90471      0.32678     -0.058 
C3       C      0.57049      0.40471      0.82678     -0.058 
C3       C      0.0704903    0.90471      0.82678     -0.058 
C3       C      0.0819903    0.39645      0.33485     -0.058 
C3       C      0.58199      0.89645      0.33485     -0.058 
C3       C      0.58199      0.39645      0.83485     -0.058 
C3       C      0.0819903    0.89645      0.83485     -0.058 
C3       C      0.0929402    0.44571      0.26355     -0.058 
C3       C      0.59294      0.94571      0.26355     -0.058 
C3       C      0.59294      0.44571      0.76355     -0.058 
C3       C      0.0929402    0.94571      0.76355     -0.058 
C1       C      0.0687       0.44016      0.27464      0.496 
C1       C      0.5687       0.94016      0.27464      0.496 
C1       C      0.5687       0.44016      0.77464      0.496 
C1       C      0.0687       0.94016      0.77464      0.496 
C2       C      0.0821096    0.43518      0.26807     -0.07  
C2       C      0.58211      0.93518      0.26807     -0.07  
C2       C      0.58211      0.43518      0.76807     -0.07  
C2       C      0.0821096    0.93518      0.76807     -0.07  
C3       C      0.10578      0.44076      0.25617     -0.058 
C3       C      0.60578      0.94076      0.25617     -0.058 
C3       C      0.60578      0.44076      0.75617     -0.058 
C3       C      0.10578      0.94076      0.75617     -0.058 
C1       C      0.12253      0.41918      0.25095      0.496 
C1       C      0.62253      0.91918      0.25095      0.496 
C1       C      0.62253      0.41918      0.75095      0.496 
C1       C      0.12253      0.91918      0.75095      0.496 
C2       C      0.10825      0.42522      0.25489     -0.07  
C2       C      0.60825      0.92522      0.25489     -0.07  
C2       C      0.60825      0.42522      0.75489     -0.07  
C2       C      0.10825      0.92522      0.75489     -0.07  
C3       C      0.0851602    0.41968      0.26846     -0.058 
C3       C      0.58516      0.91968      0.26846     -0.058 
C3       C      0.58516      0.41968      0.76846     -0.058 
C3       C      0.0851602    0.91968      0.76846     -0.058 
C3       C      0.0984201    0.41458      0.26171     -0.058 
C3       C      0.59842      0.91458      0.26171     -0.058 
C3       C      0.59842      0.41458      0.76171     -0.058 
C3       C      0.0984201    0.91458      0.76171     -0.058 
H1       H      0.913299     0.249672     0.447495     0.108 
H1       H      0.413299     0.749672     0.447495     0.108 
H1       H      0.413299     0.249672     0.947495     0.108 
H1       H      0.913299     0.749672     0.947495     0.108 
H1       H      0.906686     0.276373     0.44121      0.108 
H1       H      0.406686     0.776373     0.44121      0.108 
H1       H      0.406686     0.276373     0.94121      0.108 
H1       H      0.906686     0.776373     0.94121      0.108 
H1       H      0.0677829    0.401732     0.315441     0.108 
H1       H      0.567783     0.901732     0.315441     0.108 
H1       H      0.567783     0.401732     0.815441     0.108 
H1       H      0.0677829    0.901732     0.815441     0.108 
H1       H      0.0858747    0.385871     0.330635     0.108 
H1       H      0.585875     0.885871     0.330635     0.108 
H1       H      0.585875     0.385871     0.830635     0.108 
H1       H      0.0858747    0.885871     0.830635     0.108 
H1       H      0.868168     0.428901     0.347624     0.108 
H1       H      0.368168     0.928901     0.347624     0.108 
H1       H      0.368168     0.428901     0.847624     0.108 
H1       H      0.868168     0.928901     0.847624     0.108 
H1       H      0.523085     0.289301     0.00284576   0.108 
H1       H      0.0230845    0.789301     0.00284576   0.108 
H1       H      0.0230845    0.289301     0.502846     0.108 
H1       H      0.523085     0.789301     0.502846     0.108 
H1       H      0.0774398    0.412162     0.273812     0.108 
H1       H      0.57744      0.912162     0.273812     0.108 
H1       H      0.57744      0.412162     0.773812     0.108 
H1       H      0.0774398    0.912162     0.773812     0.108 
H1       H      0.10105      0.402826     0.261723     0.108 
H1       H      0.60105      0.902826     0.261723     0.108 
H1       H      0.60105      0.402826     0.761723     0.108 
H1       H      0.10105      0.902826     0.761723     0.108 
H1       H      0.091259     0.457414     0.265798     0.108 
H1       H      0.591259     0.957414     0.265798     0.108 
H1       H      0.591259     0.457414     0.765797     0.108 
H1       H      0.091259     0.957414     0.765797     0.108 
H1       H      0.113551     0.448741     0.251598     0.108 
H1       H      0.613551     0.948741     0.251598     0.108 
H1       H      0.613551     0.448741     0.751598     0.108 
H1       H      0.113551     0.948741     0.751598     0.108 
H1       H      0.18482      0.458053     0.312261     0.108 
H1       H      0.684819     0.958053     0.312261     0.108 
H1       H      0.684819     0.458053     0.812261     0.108 
H1       H      0.18482      0.958053     0.812261     0.108 
H1       H      0.148184     0.480043     0.289666     0.108 
H1       H      0.648184     0.980043     0.289666     0.108 
H1       H      0.648184     0.480043     0.789666     0.108 
H1       H      0.148184     0.980043     0.789666     0.108 
H1       H      0.130481     0.375009     0.289099     0.108 
H1       H      0.630481     0.875009     0.289099     0.108 
H1       H      0.630481     0.375009     0.789099     0.108 
H1       H      0.130481     0.875009     0.789099     0.108 
H1       H      0.12544      0.365095     0.315533     0.108 
H1       H      0.62544      0.865095     0.315533     0.108 
H1       H      0.62544      0.365095     0.815533     0.108 
H1       H      0.12544      0.865095     0.815533     0.108 
H1       H      0.164901     0.403        0.305729     0.108 
H1       H      0.664901     0.903        0.305729     0.108 
H1       H      0.664901     0.403        0.805729     0.108 
H1       H      0.164901     0.903        0.805729     0.108 
H1       H      0.162753     0.392241     0.331891     0.108 
H1       H      0.662753     0.892241     0.331891     0.108 
H1       H      0.662753     0.392241     0.831891     0.108 
H1       H      0.162753     0.892241     0.831891     0.108 
H1       H      0.00795328   0.331316     0.487543     0.108 
H1       H      0.507953     0.831316     0.487543     0.108 
H1       H      0.507953     0.331316     0.987543     0.108 
H1       H      0.00795328   0.831316     0.987543     0.108 
Cr1      Cr     0.737089     0.32201      0.0947304    1.619 
Cr1      Cr     0.237089     0.82201      0.0947304    1.619 
Cr1      Cr     0.237089     0.32201      0.59473      1.619 
Cr1      Cr     0.737089     0.82201      0.59473      1.619 
Cr2      Cr     0.0415398    0.45754      0.3228       1.35  
Cr2      Cr     0.54154      0.95754      0.3228       1.35  
Cr2      Cr     0.54154      0.45754      0.8228       1.35  
Cr2      Cr     0.0415398    0.95754      0.8228       1.35  
O2       O      0.81964      0.34018      0.35869     -0.574 
O2       O      0.31964      0.840179     0.35869     -0.574 
O2       O      0.31964      0.34018      0.85869     -0.574 
O2       O      0.81964      0.840179     0.85869     -0.574 
O3       O      0.0235403    0.44413      0.3239      -0.438 
O3       O      0.52354      0.94413      0.3239      -0.438 
O3       O      0.52354      0.44413      0.8239      -0.438 
O3       O      0.0235403    0.94413      0.8239      -0.438 
O2       O      0.9493       0.427369     0.338859    -0.574 
O2       O      0.4493       0.927369     0.338859    -0.574 
O2       O      0.4493       0.427369     0.838859    -0.574 
O2       O      0.9493       0.927369     0.838859    -0.574 
O2       O      0.92932      0.47584      0.22122     -0.574 
O2       O      0.42932      0.97584      0.22122     -0.574 
O2       O      0.42932      0.47584      0.72122     -0.574 
O2       O      0.92932      0.97584      0.72122     -0.574 
O2       O      0.954769     0.47805      0.21763     -0.574 
O2       O      0.454771     0.97805      0.21763     -0.574 
O2       O      0.454771     0.47805      0.71763     -0.574 
O2       O      0.954769     0.97805      0.71763     -0.574 
O3       O      0.76956      0.32439      0.07701     -0.438 
O3       O      0.26956      0.82439      0.07701     -0.438 
O3       O      0.26956      0.32439      0.57701     -0.438 
O3       O      0.76956      0.82439      0.57701     -0.438 
O2       O      0.75308      0.30997      0.0877595   -0.574 
O2       O      0.25308      0.80997      0.0877595   -0.574 
O2       O      0.25308      0.30997      0.58776     -0.574 
O2       O      0.75308      0.80997      0.58776     -0.574 
O2       O      0.851239     0.27721      0.0875795   -0.574 
O2       O      0.351239     0.77721      0.0875795   -0.574 
O2       O      0.351239     0.27721      0.587579    -0.574 
O2       O      0.851239     0.77721      0.587579    -0.574 
O2       O      0.86549      0.27253      0.107739    -0.574 
O2       O      0.36549      0.77253      0.107739    -0.574 
O2       O      0.36549      0.27253      0.607739    -0.574 
O2       O      0.86549      0.77253      0.607739    -0.574 
O3       O      0.87448      0.35189      0.10125     -0.438 
O3       O      0.37448      0.85189      0.10125     -0.438 
O3       O      0.37448      0.35189      0.60125     -0.438 
O3       O      0.87448      0.85189      0.60125     -0.438 
O2       O      0.883689     0.34307      0.12292     -0.574 
O2       O      0.383689     0.84307      0.12292     -0.574 
O2       O      0.383689     0.34307      0.62292     -0.574 
O2       O      0.883689     0.84307      0.62292     -0.574 
O2       O      0.82805      0.30911      0.19362     -0.574 
O2       O      0.32805      0.80911      0.19362     -0.574 
O2       O      0.32805      0.30911      0.69362     -0.574 
O2       O      0.82805      0.80911      0.69362     -0.574 
O2       O      0.87056      0.35378      0.14839     -0.574 
O2       O      0.37056      0.85378      0.14839     -0.574 
O2       O      0.37056      0.35378      0.64839     -0.574 
O2       O      0.87056      0.85378      0.64839     -0.574 
O3       O      0.79621      0.27376      0.18523     -0.438 
O3       O      0.29621      0.77376      0.18523     -0.438 
O3       O      0.29621      0.27376      0.68523     -0.438 
O3       O      0.79621      0.77376      0.68523     -0.438 
O2       O      0.81945      0.28088      0.18927     -0.574 
O2       O      0.31945      0.78088      0.18927     -0.574 
O2       O      0.31945      0.28088      0.68927     -0.574 
O2       O      0.81945      0.78088      0.68927     -0.574 
O3       O      0.82278      0.24336      0.11692     -0.438 
O3       O      0.32278      0.74336      0.11692     -0.438 
O3       O      0.32278      0.24336      0.61692     -0.438 
O3       O      0.82278      0.74336      0.61692     -0.438 
O2       O      0.84525      0.25338      0.12647     -0.574 
O2       O      0.34525      0.75338      0.12647     -0.574 
O2       O      0.34525      0.25338      0.62647     -0.574 
O2       O      0.84525      0.75338      0.62647     -0.574 
F1       F      0.0391295    0.46127      0.34415     -0.547 
F1       F      0.53913      0.96127      0.34415     -0.547 
F1       F      0.53913      0.46127      0.84415     -0.547 
F1       F      0.0391295    0.96127      0.84415     -0.547 
C3       C      0.81934      0.35929      0.3795      -0.058 
C3       C      0.31934      0.85929      0.3795      -0.058 
C3       C      0.31934      0.35929      0.8795      -0.058 
C3       C      0.81934      0.85929      0.8795      -0.058 
C3       C      0.99493      0.438        0.33163     -0.058 
C3       C      0.49493      0.938        0.33163     -0.058 
C3       C      0.49493      0.438        0.83163     -0.058 
C3       C      0.99493      0.938        0.83163     -0.058 
C3       C      0.97948      0.434701     0.335059    -0.058 
C3       C      0.47948      0.934699     0.335059    -0.058 
C3       C      0.47948      0.434701     0.835059    -0.058 
C3       C      0.97948      0.934699     0.835059    -0.058 
C3       C      0.453091     0.00252056   0.23623     -0.058 
C3       C      0.953089     0.502519     0.23623     -0.058 
C3       C      0.953089     0.00252056   0.73623     -0.058 
C3       C      0.453091     0.502519     0.73623     -0.058 
C1       C      0.94264      0.47967      0.226        0.496 
C1       C      0.44264      0.97967      0.226        0.496 
C1       C      0.44264      0.47967      0.726        0.496 
C1       C      0.94264      0.97967      0.726        0.496 
C2       C      0.94264      0.4906       0.23755     -0.07  
C2       C      0.44264      0.9906       0.23755     -0.07  
C2       C      0.44264      0.4906       0.73755     -0.07  
C2       C      0.94264      0.9906       0.73755     -0.07  
C3       C      0.92859      0.493679     0.24506     -0.058 
C3       C      0.42859      0.993679     0.24506     -0.058 
C3       C      0.42859      0.493679     0.74506     -0.058 
C3       C      0.92859      0.993679     0.74506     -0.058 
C3       C      0.79077      0.30231      0.0718394   -0.058 
C3       C      0.29077      0.80231      0.0718394   -0.058 
C3       C      0.29077      0.30231      0.571839    -0.058 
C3       C      0.79077      0.80231      0.571839    -0.058 
C1       C      0.76544      0.3113       0.0802203    0.496 
C1       C      0.26544      0.8113       0.0802203    0.496 
C1       C      0.26544      0.3113       0.58022      0.496 
C1       C      0.76544      0.8113       0.58022      0.496 
C2       C      0.777409     0.30018      0.0811104   -0.07  
C2       C      0.277409     0.80018      0.0811104   -0.07  
C2       C      0.277409     0.30018      0.58111     -0.07  
C2       C      0.777409     0.80018      0.58111     -0.07  
C3       C      0.778029     0.28933      0.0928997   -0.058 
C3       C      0.278029     0.78933      0.0928997   -0.058 
C3       C      0.278029     0.28933      0.5929      -0.058 
C3       C      0.778029     0.78933      0.5929      -0.058 
C3       C      0.85653      0.30816      0.09204     -0.058 
C3       C      0.35653      0.80816      0.09204     -0.058 
C3       C      0.35653      0.30816      0.59204     -0.058 
C3       C      0.85653      0.80816      0.59204     -0.058 
C1       C      0.86156      0.28092      0.0967098    0.496 
C1       C      0.36156      0.78092      0.0967098    0.496 
C1       C      0.36156      0.28092      0.59671      0.496 
C1       C      0.86156      0.78092      0.59671      0.496 
C2       C      0.86496      0.29596      0.0989096   -0.07  
C2       C      0.36496      0.79596      0.0989096   -0.07  
C2       C      0.36496      0.29596      0.59891     -0.07  
C2       C      0.86496      0.79596      0.59891     -0.07  
C3       C      0.86117      0.3231       0.0947203   -0.058 
C3       C      0.36117      0.8231       0.0947203   -0.058 
C3       C      0.36117      0.3231       0.59472     -0.058 
C3       C      0.86117      0.8231       0.59472     -0.058 
C1       C      0.87691      0.34071      0.110299     0.496 
C1       C      0.37691      0.840709     0.110299     0.496 
C1       C      0.37691      0.34071      0.610299     0.496 
C1       C      0.87691      0.840709     0.610299     0.496 
C2       C      0.8705       0.32589      0.10769     -0.07  
C2       C      0.3705       0.82589      0.10769     -0.07  
C2       C      0.3705       0.32589      0.60769     -0.07  
C2       C      0.8705       0.82589      0.60769     -0.07  
C3       C      0.872539     0.298361     0.11224     -0.058 
C3       C      0.37254      0.798359     0.11224     -0.058 
C3       C      0.37254      0.298361     0.612239    -0.058 
C3       C      0.872539     0.798359     0.612239    -0.058 
C3       C      0.87689      0.3135       0.11582     -0.058 
C3       C      0.37689      0.8135       0.11582     -0.058 
C3       C      0.37689      0.3135       0.61582     -0.058 
C3       C      0.87689      0.8135       0.61582     -0.058 
C3       C      0.84529      0.32678      0.17951     -0.058 
C3       C      0.34529      0.82678      0.17951     -0.058 
C3       C      0.34529      0.32678      0.67951     -0.058 
C3       C      0.84529      0.82678      0.67951     -0.058 
C3       C      0.85355      0.33485      0.16801     -0.058 
C3       C      0.35355      0.83485      0.16801     -0.058 
C3       C      0.35355      0.33485      0.66801     -0.058 
C3       C      0.85355      0.83485      0.66801     -0.058 
C3       C      0.804289     0.26355      0.15706     -0.058 
C3       C      0.304289     0.76355      0.15706     -0.058 
C3       C      0.304289     0.26355      0.65706     -0.058 
C3       C      0.804289     0.76355      0.65706     -0.058 
C1       C      0.80984      0.27464      0.181299     0.496 
C1       C      0.30984      0.77464      0.181299     0.496 
C1       C      0.30984      0.27464      0.681299     0.496 
C1       C      0.80984      0.77464      0.681299     0.496 
C2       C      0.81482      0.26807      0.16789     -0.07  
C2       C      0.31482      0.76807      0.16789     -0.07  
C2       C      0.31482      0.26807      0.66789     -0.07  
C2       C      0.81482      0.76807      0.66789     -0.07  
C3       C      0.809239     0.25617      0.14422     -0.058 
C3       C      0.309239     0.75617      0.14422     -0.058 
C3       C      0.309239     0.25617      0.64422     -0.058 
C3       C      0.809239     0.75617      0.64422     -0.058 
C1       C      0.83082      0.25095      0.12747      0.496 
C1       C      0.33082      0.75095      0.12747      0.496 
C1       C      0.33082      0.25095      0.62747      0.496 
C1       C      0.83082      0.75095      0.62747      0.496 
C2       C      0.82478      0.25489      0.14175     -0.07  
C2       C      0.32478      0.75489      0.14175     -0.07  
C2       C      0.32478      0.25489      0.64175     -0.07  
C2       C      0.82478      0.75489      0.64175     -0.07  
C3       C      0.83032      0.26846      0.16484     -0.058 
C3       C      0.33032      0.76846      0.16484     -0.058 
C3       C      0.33032      0.26846      0.66484     -0.058 
C3       C      0.83032      0.76846      0.66484     -0.058 
C3       C      0.83542      0.26171      0.15158     -0.058 
C3       C      0.33542      0.76171      0.15158     -0.058 
C3       C      0.33542      0.26171      0.65158     -0.058 
C3       C      0.83542      0.76171      0.65158     -0.058 
H1       H      0.000327448  0.447495     0.3367       0.108 
H1       H      0.500327     0.947495     0.3367       0.108 
H1       H      0.500327     0.447495     0.8367       0.108 
H1       H      0.000327448  0.947495     0.8367       0.108 
H1       H      0.973626     0.44121      0.343313     0.108 
H1       H      0.473626     0.94121      0.343313     0.108 
H1       H      0.473626     0.44121      0.843313     0.108 
H1       H      0.973626     0.94121      0.843313     0.108 
H1       H      0.848268     0.315441     0.182218     0.108 
H1       H      0.348268     0.815441     0.182218     0.108 
H1       H      0.348268     0.315441     0.682218     0.108 
H1       H      0.848268     0.815441     0.682218     0.108 
H1       H      0.864128     0.330635     0.164125     0.108 
H1       H      0.364128     0.830635     0.164125     0.108 
H1       H      0.364128     0.330635     0.664125     0.108 
H1       H      0.864128     0.830635     0.664125     0.108 
H1       H      0.8211       0.347624     0.381832     0.108 
H1       H      0.3211       0.847624     0.381832     0.108 
H1       H      0.3211       0.347624     0.881832     0.108 
H1       H      0.8211       0.847624     0.881832     0.108 
H1       H      0.460699     0.00284576   0.226915     0.108 
H1       H      0.960699     0.502846     0.226915     0.108 
H1       H      0.960699     0.00284576   0.726915     0.108 
H1       H      0.460699     0.502846     0.726915     0.108 
H1       H      0.837838     0.273812     0.172561     0.108 
H1       H      0.337838     0.773812     0.172561     0.108 
H1       H      0.337838     0.273812     0.672561     0.108 
H1       H      0.837838     0.773812     0.672561     0.108 
H1       H      0.847174     0.261723     0.14895      0.108 
H1       H      0.347174     0.761723     0.14895      0.108 
H1       H      0.347174     0.261723     0.64895      0.108 
H1       H      0.847174     0.761723     0.64895      0.108 
H1       H      0.792587     0.265798     0.15874      0.108 
H1       H      0.292587     0.765797     0.15874      0.108 
H1       H      0.292587     0.265798     0.65874      0.108 
H1       H      0.792587     0.765797     0.65874      0.108 
H1       H      0.801258     0.251598     0.136449     0.108 
H1       H      0.301258     0.751598     0.136449     0.108 
H1       H      0.301258     0.251598     0.636449     0.108 
H1       H      0.801258     0.751598     0.636449     0.108 
H1       H      0.791948     0.312261     0.0651802    0.108 
H1       H      0.291948     0.812261     0.0651802    0.108 
H1       H      0.291948     0.312261     0.56518      0.108 
H1       H      0.791948     0.812261     0.56518      0.108 
H1       H      0.769958     0.289666     0.101816     0.108 
H1       H      0.269958     0.789666     0.101816     0.108 
H1       H      0.269958     0.289666     0.601816     0.108 
H1       H      0.769958     0.789666     0.601816     0.108 
H1       H      0.874991     0.289099     0.119519     0.108 
H1       H      0.374991     0.789099     0.119519     0.108 
H1       H      0.374991     0.289099     0.619519     0.108 
H1       H      0.874991     0.789099     0.619519     0.108 
H1       H      0.884905     0.315533     0.124561     0.108 
H1       H      0.384905     0.815533     0.124561     0.108 
H1       H      0.384905     0.315533     0.624561     0.108 
H1       H      0.884905     0.815533     0.624561     0.108 
H1       H      0.847        0.305729     0.0850983    0.108 
H1       H      0.347        0.805729     0.0850983    0.108 
H1       H      0.347        0.305729     0.585098     0.108 
H1       H      0.847        0.805729     0.585098     0.108 
H1       H      0.857758     0.331891     0.0872475    0.108 
H1       H      0.357758     0.831891     0.0872475    0.108 
H1       H      0.357758     0.331891     0.587248     0.108 
H1       H      0.857758     0.831891     0.587248     0.108 
H1       H      0.918685     0.487543     0.242047     0.108 
H1       H      0.418685     0.987543     0.242047     0.108 
H1       H      0.418685     0.487543     0.742047     0.108 
H1       H      0.918685     0.987543     0.742047     0.108 
Cr1      Cr     0.237089     0.42799      0.15527      1.619 
Cr1      Cr     0.737089     0.92799      0.15527      1.619 
Cr1      Cr     0.737089     0.42799      0.65527      1.619 
Cr1      Cr     0.237089     0.92799      0.65527      1.619 
Cr1      Cr     0.0415398    0.29246      0.4272       1.619 
Cr1      Cr     0.54154      0.79246      0.4272       1.619 
Cr1      Cr     0.54154      0.29246      0.9272       1.619 
Cr1      Cr     0.0415398    0.79246      0.9272       1.619 
O2       O      0.81964      0.40982      0.39131     -0.574 
O2       O      0.31964      0.90982      0.39131     -0.574 
O2       O      0.31964      0.40982      0.89131     -0.574 
O2       O      0.81964      0.90982      0.89131     -0.574 
O2       O      0.0235403    0.30587      0.4261      -0.574 
O2       O      0.52354      0.80587      0.4261      -0.574 
O2       O      0.52354      0.30587      0.9261      -0.574 
O2       O      0.0235403    0.80587      0.9261      -0.574 
O2       O      0.9493       0.32263      0.41114     -0.574 
O2       O      0.4493       0.82263      0.41114     -0.574 
O2       O      0.4493       0.32263      0.91114     -0.574 
O2       O      0.9493       0.82263      0.91114     -0.574 
O2       O      0.42932      0.27416      0.0287794   -0.574 
O2       O      0.92932      0.77416      0.0287794   -0.574 
O2       O      0.92932      0.27416      0.528779    -0.574 
O2       O      0.42932      0.77416      0.528779    -0.574 
O3       O      0.454771     0.27195      0.0323701   -0.438 
O3       O      0.954769     0.77195      0.0323701   -0.438 
O3       O      0.954769     0.27195      0.53237     -0.438 
O3       O      0.454771     0.77195      0.53237     -0.438 
O2       O      0.26956      0.42561      0.172989    -0.574 
O2       O      0.76956      0.92561      0.172989    -0.574 
O2       O      0.76956      0.42561      0.672989    -0.574 
O2       O      0.26956      0.92561      0.672989    -0.574 
O2       O      0.25308      0.44003      0.16224     -0.574 
O2       O      0.75308      0.94003      0.16224     -0.574 
O2       O      0.75308      0.44003      0.66224     -0.574 
O2       O      0.25308      0.94003      0.66224     -0.574 
O2       O      0.351239     0.47279      0.16242     -0.574 
O2       O      0.851239     0.97279      0.16242     -0.574 
O2       O      0.851239     0.47279      0.66242     -0.574 
O2       O      0.351239     0.97279      0.66242     -0.574 
O3       O      0.36549      0.47747      0.14226     -0.438 
O3       O      0.86549      0.97747      0.14226     -0.438 
O3       O      0.86549      0.47747      0.64226     -0.438 
O3       O      0.36549      0.97747      0.64226     -0.438 
O2       O      0.37448      0.39811      0.14875     -0.574 
O2       O      0.87448      0.89811      0.14875     -0.574 
O2       O      0.87448      0.39811      0.64875     -0.574 
O2       O      0.37448      0.89811      0.64875     -0.574 
O3       O      0.383689     0.40693      0.12708     -0.438 
O3       O      0.883689     0.90693      0.12708     -0.438 
O3       O      0.883689     0.40693      0.62708     -0.438 
O3       O      0.383689     0.90693      0.62708     -0.438 
O2       O      0.32805      0.440889     0.0563796   -0.574 
O2       O      0.82805      0.940889     0.0563796   -0.574 
O2       O      0.82805      0.440889     0.55638     -0.574 
O2       O      0.32805      0.940889     0.55638     -0.574 
O3       O      0.37056      0.39622      0.10161     -0.438 
O3       O      0.87056      0.89622      0.10161     -0.438 
O3       O      0.87056      0.39622      0.60161     -0.438 
O3       O      0.37056      0.89622      0.60161     -0.438 
O2       O      0.29621      0.47624      0.0647695   -0.574 
O2       O      0.79621      0.97624      0.0647695   -0.574 
O2       O      0.79621      0.47624      0.564769    -0.574 
O2       O      0.29621      0.97624      0.564769    -0.574 
O2       O      0.31945      0.46912      0.0607298   -0.574 
O2       O      0.81945      0.96912      0.0607298   -0.574 
O2       O      0.81945      0.46912      0.56073     -0.574 
O2       O      0.31945      0.96912      0.56073     -0.574 
O2       O      0.82278      0.00664011   0.13308     -0.574 
O2       O      0.32278      0.50664      0.13308     -0.574 
O2       O      0.32278      0.00664011   0.63308     -0.574 
O2       O      0.82278      0.50664      0.63308     -0.574 
O3       O      0.34525      0.49662      0.12353     -0.438 
O3       O      0.84525      0.99662      0.12353     -0.438 
O3       O      0.84525      0.49662      0.62353     -0.438 
O3       O      0.34525      0.99662      0.62353     -0.438 
C3       C      0.81934      0.39071      0.3705      -0.058 
C3       C      0.31934      0.89071      0.3705      -0.058 
C3       C      0.31934      0.39071      0.8705      -0.058 
C3       C      0.81934      0.89071      0.8705      -0.058 
C3       C      0.99493      0.312        0.41837     -0.058 
C3       C      0.49493      0.812        0.41837     -0.058 
C3       C      0.49493      0.312        0.91837     -0.058 
C3       C      0.99493      0.812        0.91837     -0.058 
C3       C      0.97948      0.3153       0.41494     -0.058 
C3       C      0.47948      0.8153       0.41494     -0.058 
C3       C      0.47948      0.3153       0.91494     -0.058 
C3       C      0.97948      0.8153       0.91494     -0.058 
C3       C      0.453091     0.24748      0.0137697   -0.058 
C3       C      0.953089     0.74748      0.0137697   -0.058 
C3       C      0.953089     0.24748      0.51377     -0.058 
C3       C      0.453091     0.74748      0.51377     -0.058 
C1       C      0.44264      0.27033      0.0240005    0.496 
C1       C      0.94264      0.770329     0.0240005    0.496 
C1       C      0.94264      0.27033      0.523999     0.496 
C1       C      0.44264      0.770329     0.523999     0.496 
C2       C      0.44264      0.2594       0.0124498   -0.07  
C2       C      0.94264      0.7594       0.0124498   -0.07  
C2       C      0.94264      0.2594       0.51245     -0.07  
C2       C      0.44264      0.7594       0.51245     -0.07  
C3       C      0.42859      0.25632      0.00493986  -0.058 
C3       C      0.92859      0.75632      0.00493986  -0.058 
C3       C      0.92859      0.25632      0.50494     -0.058 
C3       C      0.42859      0.75632      0.50494     -0.058 
C3       C      0.29077      0.44769      0.17816     -0.058 
C3       C      0.79077      0.94769      0.17816     -0.058 
C3       C      0.79077      0.44769      0.67816     -0.058 
C3       C      0.29077      0.94769      0.67816     -0.058 
C1       C      0.26544      0.4387       0.16978      0.496 
C1       C      0.76544      0.9387       0.16978      0.496 
C1       C      0.76544      0.4387       0.66978      0.496 
C1       C      0.26544      0.9387       0.66978      0.496 
C2       C      0.277409     0.449819     0.16889     -0.07  
C2       C      0.777409     0.949819     0.16889     -0.07  
C2       C      0.777409     0.449819     0.66889     -0.07  
C2       C      0.277409     0.949819     0.66889     -0.07  
C3       C      0.278029     0.46067      0.1571      -0.058 
C3       C      0.778029     0.96067      0.1571      -0.058 
C3       C      0.778029     0.46067      0.6571      -0.058 
C3       C      0.278029     0.96067      0.6571      -0.058 
C3       C      0.35653      0.44184      0.157959    -0.058 
C3       C      0.85653      0.94184      0.157959    -0.058 
C3       C      0.85653      0.44184      0.657959    -0.058 
C3       C      0.35653      0.94184      0.657959    -0.058 
C1       C      0.36156      0.46908      0.15329      0.496 
C1       C      0.86156      0.96908      0.15329      0.496 
C1       C      0.86156      0.46908      0.65329      0.496 
C1       C      0.36156      0.96908      0.65329      0.496 
C2       C      0.36496      0.45404      0.15109     -0.07  
C2       C      0.86496      0.95404      0.15109     -0.07  
C2       C      0.86496      0.45404      0.65109     -0.07  
C2       C      0.36496      0.95404      0.65109     -0.07  
C3       C      0.36117      0.4269       0.15528     -0.058 
C3       C      0.86117      0.9269       0.15528     -0.058 
C3       C      0.86117      0.4269       0.65528     -0.058 
C3       C      0.36117      0.9269       0.65528     -0.058 
C1       C      0.37691      0.40929      0.1397       0.496 
C1       C      0.87691      0.90929      0.1397       0.496 
C1       C      0.87691      0.40929      0.6397       0.496 
C1       C      0.37691      0.90929      0.6397       0.496 
C2       C      0.3705       0.42411      0.142309    -0.07  
C2       C      0.8705       0.92411      0.142309    -0.07  
C2       C      0.8705       0.42411      0.642309    -0.07  
C2       C      0.3705       0.92411      0.642309    -0.07  
C3       C      0.37254      0.45164      0.13776     -0.058 
C3       C      0.872539     0.95164      0.13776     -0.058 
C3       C      0.872539     0.45164      0.63776     -0.058 
C3       C      0.37254      0.95164      0.63776     -0.058 
C3       C      0.37689      0.4365       0.13418     -0.058 
C3       C      0.87689      0.9365       0.13418     -0.058 
C3       C      0.87689      0.4365       0.63418     -0.058 
C3       C      0.37689      0.9365       0.63418     -0.058 
C3       C      0.34529      0.42322      0.0704903   -0.058 
C3       C      0.84529      0.92322      0.0704903   -0.058 
C3       C      0.84529      0.42322      0.57049     -0.058 
C3       C      0.34529      0.92322      0.57049     -0.058 
C3       C      0.35355      0.41515      0.0819903   -0.058 
C3       C      0.85355      0.91515      0.0819903   -0.058 
C3       C      0.85355      0.41515      0.58199     -0.058 
C3       C      0.35355      0.91515      0.58199     -0.058 
C3       C      0.304289     0.48645      0.0929402   -0.058 
C3       C      0.804289     0.98645      0.0929402   -0.058 
C3       C      0.804289     0.48645      0.59294     -0.058 
C3       C      0.304289     0.98645      0.59294     -0.058 
C1       C      0.30984      0.47536      0.0687       0.496 
C1       C      0.80984      0.97536      0.0687       0.496 
C1       C      0.80984      0.47536      0.5687       0.496 
C1       C      0.30984      0.97536      0.5687       0.496 
C2       C      0.31482      0.48193      0.0821096   -0.07  
C2       C      0.81482      0.98193      0.0821096   -0.07  
C2       C      0.81482      0.48193      0.58211     -0.07  
C2       C      0.31482      0.98193      0.58211     -0.07  
C3       C      0.309239     0.49383      0.10578     -0.058 
C3       C      0.809239     0.99383      0.10578     -0.058 
C3       C      0.809239     0.49383      0.60578     -0.058 
C3       C      0.309239     0.99383      0.60578     -0.058 
C1       C      0.33082      0.49905      0.12253      0.496 
C1       C      0.83082      0.99905      0.12253      0.496 
C1       C      0.83082      0.49905      0.62253      0.496 
C1       C      0.33082      0.99905      0.62253      0.496 
C2       C      0.32478      0.49511      0.10825     -0.07  
C2       C      0.82478      0.99511      0.10825     -0.07  
C2       C      0.82478      0.49511      0.60825     -0.07  
C2       C      0.32478      0.99511      0.60825     -0.07  
C3       C      0.33032      0.48154      0.0851602   -0.058 
C3       C      0.83032      0.98154      0.0851602   -0.058 
C3       C      0.83032      0.48154      0.58516     -0.058 
C3       C      0.33032      0.98154      0.58516     -0.058 
C3       C      0.33542      0.48829      0.0984201   -0.058 
C3       C      0.83542      0.98829      0.0984201   -0.058 
C3       C      0.83542      0.48829      0.59842     -0.058 
C3       C      0.33542      0.98829      0.59842     -0.058 
H1       H      0.000327448  0.302505     0.413299     0.108 
H1       H      0.500327     0.802505     0.413299     0.108 
H1       H      0.500327     0.302505     0.913299     0.108 
H1       H      0.000327448  0.802505     0.913299     0.108 
H1       H      0.973626     0.308789     0.406686     0.108 
H1       H      0.473626     0.808789     0.406686     0.108 
H1       H      0.473626     0.308789     0.906686     0.108 
H1       H      0.973626     0.808789     0.906686     0.108 
H1       H      0.348268     0.434559     0.0677829    0.108 
H1       H      0.848268     0.934559     0.0677829    0.108 
H1       H      0.848268     0.434559     0.567783     0.108 
H1       H      0.348268     0.934559     0.567783     0.108 
H1       H      0.364128     0.419364     0.0858747    0.108 
H1       H      0.864128     0.919364     0.0858747    0.108 
H1       H      0.864128     0.419364     0.585875     0.108 
H1       H      0.364128     0.919364     0.585875     0.108 
H1       H      0.8211       0.402375     0.368168     0.108 
H1       H      0.3211       0.902375     0.368168     0.108 
H1       H      0.3211       0.402375     0.868168     0.108 
H1       H      0.8211       0.902375     0.868168     0.108 
H1       H      0.460699     0.247154     0.0230845    0.108 
H1       H      0.960699     0.747154     0.0230845    0.108 
H1       H      0.960699     0.247154     0.523085     0.108 
H1       H      0.460699     0.747154     0.523085     0.108 
H1       H      0.337838     0.476187     0.0774398    0.108 
H1       H      0.837838     0.976187     0.0774398    0.108 
H1       H      0.837838     0.476187     0.57744      0.108 
H1       H      0.337838     0.976187     0.57744      0.108 
H1       H      0.347174     0.488276     0.10105      0.108 
H1       H      0.847174     0.988276     0.10105      0.108 
H1       H      0.847174     0.488276     0.60105      0.108 
H1       H      0.347174     0.988276     0.60105      0.108 
H1       H      0.292587     0.484203     0.091259     0.108 
H1       H      0.792587     0.984203     0.091259     0.108 
H1       H      0.792587     0.484203     0.591259     0.108 
H1       H      0.292587     0.984203     0.591259     0.108 
H1       H      0.301258     0.498402     0.113551     0.108 
H1       H      0.801258     0.998402     0.113551     0.108 
H1       H      0.801258     0.498402     0.613551     0.108 
H1       H      0.301258     0.998402     0.613551     0.108 
H1       H      0.291948     0.437739     0.18482      0.108 
H1       H      0.791948     0.937739     0.18482      0.108 
H1       H      0.791948     0.437739     0.684819     0.108 
H1       H      0.291948     0.937739     0.684819     0.108 
H1       H      0.269958     0.460334     0.148184     0.108 
H1       H      0.769958     0.960334     0.148184     0.108 
H1       H      0.769958     0.460334     0.648184     0.108 
H1       H      0.269958     0.960334     0.648184     0.108 
H1       H      0.374991     0.460902     0.130481     0.108 
H1       H      0.874991     0.960902     0.130481     0.108 
H1       H      0.874991     0.460902     0.630481     0.108 
H1       H      0.374991     0.960902     0.630481     0.108 
H1       H      0.384905     0.434466     0.12544      0.108 
H1       H      0.884905     0.934466     0.12544      0.108 
H1       H      0.884905     0.434466     0.62544      0.108 
H1       H      0.384905     0.934466     0.62544      0.108 
H1       H      0.347        0.444271     0.164901     0.108 
H1       H      0.847        0.944271     0.164901     0.108 
H1       H      0.847        0.444271     0.664901     0.108 
H1       H      0.347        0.944271     0.664901     0.108 
H1       H      0.357758     0.418109     0.162753     0.108 
H1       H      0.857758     0.918109     0.162753     0.108 
H1       H      0.857758     0.418109     0.662753     0.108 
H1       H      0.357758     0.918109     0.662753     0.108 
H1       H      0.418685     0.262456     0.00795328   0.108 
H1       H      0.918685     0.762456     0.00795328   0.108 
H1       H      0.918685     0.262456     0.507953     0.108 
H1       H      0.418685     0.762456     0.507953     0.108 
Cr2      Cr     0.51291      0.32201      0.15527      1.35  
Cr2      Cr     0.01291      0.82201      0.15527      1.35  
Cr2      Cr     0.01291      0.32201      0.65527      1.35  
Cr2      Cr     0.51291      0.82201      0.65527      1.35  
Cr2      Cr     0.70846      0.45754      0.4272       1.35  
Cr2      Cr     0.20846      0.95754      0.4272       1.35  
Cr2      Cr     0.20846      0.45754      0.9272       1.35  
Cr2      Cr     0.70846      0.95754      0.9272       1.35  
O2       O      0.93036      0.34018      0.39131     -0.574 
O2       O      0.43036      0.840179     0.39131     -0.574 
O2       O      0.43036      0.34018      0.89131     -0.574 
O2       O      0.93036      0.840179     0.89131     -0.574 
O3       O      0.72646      0.44413      0.4261      -0.438 
O3       O      0.22646      0.94413      0.4261      -0.438 
O3       O      0.22646      0.44413      0.9261      -0.438 
O3       O      0.72646      0.94413      0.9261      -0.438 
O2       O      0.8007       0.427369     0.41114     -0.574 
O2       O      0.3007       0.927369     0.41114     -0.574 
O2       O      0.3007       0.427369     0.91114     -0.574 
O2       O      0.8007       0.927369     0.91114     -0.574 
O2       O      0.32068      0.47584      0.0287794   -0.574 
O2       O      0.82068      0.97584      0.0287794   -0.574 
O2       O      0.82068      0.47584      0.528779    -0.574 
O2       O      0.32068      0.97584      0.528779    -0.574 
O2       O      0.29523      0.47805      0.0323701   -0.574 
O2       O      0.79523      0.97805      0.0323701   -0.574 
O2       O      0.79523      0.47805      0.53237     -0.574 
O2       O      0.29523      0.97805      0.53237     -0.574 
O2       O      0.48044      0.32439      0.172989    -0.574 
O2       O      0.98044      0.82439      0.172989    -0.574 
O2       O      0.98044      0.32439      0.672989    -0.574 
O2       O      0.48044      0.82439      0.672989    -0.574 
O3       O      0.49692      0.30997      0.16224     -0.438 
O3       O      0.99692      0.80997      0.16224     -0.438 
O3       O      0.99692      0.30997      0.66224     -0.438 
O3       O      0.49692      0.80997      0.66224     -0.438 
O2       O      0.39876      0.27721      0.16242     -0.574 
O2       O      0.89876      0.77721      0.16242     -0.574 
O2       O      0.89876      0.27721      0.66242     -0.574 
O2       O      0.39876      0.77721      0.66242     -0.574 
O3       O      0.38451      0.27253      0.14226     -0.438 
O3       O      0.88451      0.77253      0.14226     -0.438 
O3       O      0.88451      0.27253      0.64226     -0.438 
O3       O      0.38451      0.77253      0.64226     -0.438 
O2       O      0.37552      0.35189      0.14875     -0.574 
O2       O      0.87552      0.85189      0.14875     -0.574 
O2       O      0.87552      0.35189      0.64875     -0.574 
O2       O      0.37552      0.85189      0.64875     -0.574 
O2       O      0.36631      0.34307      0.12708     -0.574 
O2       O      0.86631      0.84307      0.12708     -0.574 
O2       O      0.86631      0.34307      0.62708     -0.574 
O2       O      0.36631      0.84307      0.62708     -0.574 
O2       O      0.42195      0.30911      0.0563796   -0.574 
O2       O      0.92195      0.80911      0.0563796   -0.574 
O2       O      0.92195      0.30911      0.55638     -0.574 
O2       O      0.42195      0.80911      0.55638     -0.574 
O2       O      0.379439     0.35378      0.10161     -0.574 
O2       O      0.879439     0.85378      0.10161     -0.574 
O2       O      0.879439     0.35378      0.60161     -0.574 
O2       O      0.379439     0.85378      0.60161     -0.574 
O3       O      0.45379      0.27376      0.0647695   -0.438 
O3       O      0.95379      0.77376      0.0647695   -0.438 
O3       O      0.95379      0.27376      0.564769    -0.438 
O3       O      0.45379      0.77376      0.564769    -0.438 
O2       O      0.430549     0.28088      0.0607298   -0.574 
O2       O      0.930549     0.78088      0.0607298   -0.574 
O2       O      0.930549     0.28088      0.56073     -0.574 
O2       O      0.430549     0.78088      0.56073     -0.574 
O2       O      0.42722      0.24336      0.13308     -0.574 
O2       O      0.92722      0.74336      0.13308     -0.574 
O2       O      0.92722      0.24336      0.63308     -0.574 
O2       O      0.42722      0.74336      0.63308     -0.574 
O3       O      0.40475      0.25338      0.12353     -0.438 
O3       O      0.90475      0.75338      0.12353     -0.438 
O3       O      0.90475      0.25338      0.62353     -0.438 
O3       O      0.40475      0.75338      0.62353     -0.438 
F1       F      0.71087      0.46127      0.40585     -0.547 
F1       F      0.21087      0.96127      0.40585     -0.547 
F1       F      0.21087      0.46127      0.90585     -0.547 
F1       F      0.71087      0.96127      0.90585     -0.547 
F1       F      0.52526      0.3025       0.1558      -0.547 
F1       F      0.0252597    0.8025       0.1558      -0.547 
F1       F      0.0252597    0.3025       0.6558      -0.547 
F1       F      0.52526      0.8025       0.6558      -0.547 
C3       C      0.93066      0.35929      0.3705      -0.058 
C3       C      0.43066      0.85929      0.3705      -0.058 
C3       C      0.43066      0.35929      0.8705      -0.058 
C3       C      0.93066      0.85929      0.8705      -0.058 
C3       C      0.75507      0.438        0.41837     -0.058 
C3       C      0.25507      0.938        0.41837     -0.058 
C3       C      0.25507      0.438        0.91837     -0.058 
C3       C      0.75507      0.938        0.91837     -0.058 
C3       C      0.77052      0.434701     0.41494     -0.058 
C3       C      0.27052      0.934699     0.41494     -0.058 
C3       C      0.27052      0.434701     0.91494     -0.058 
C3       C      0.77052      0.934699     0.91494     -0.058 
C3       C      0.79691      0.00252056   0.0137697   -0.058 
C3       C      0.29691      0.502519     0.0137697   -0.058 
C3       C      0.29691      0.00252056   0.51377     -0.058 
C3       C      0.79691      0.502519     0.51377     -0.058 
C1       C      0.30736      0.47967      0.0240005    0.496 
C1       C      0.80736      0.97967      0.0240005    0.496 
C1       C      0.80736      0.47967      0.523999     0.496 
C1       C      0.30736      0.97967      0.523999     0.496 
C2       C      0.30736      0.4906       0.0124498   -0.07  
C2       C      0.80736      0.9906       0.0124498   -0.07  
C2       C      0.80736      0.4906       0.51245     -0.07  
C2       C      0.30736      0.9906       0.51245     -0.07  
C3       C      0.32141      0.493679     0.00493986  -0.058 
C3       C      0.82141      0.993679     0.00493986  -0.058 
C3       C      0.82141      0.493679     0.50494     -0.058 
C3       C      0.32141      0.993679     0.50494     -0.058 
C3       C      0.45923      0.30231      0.17816     -0.058 
C3       C      0.95923      0.80231      0.17816     -0.058 
C3       C      0.95923      0.30231      0.67816     -0.058 
C3       C      0.45923      0.80231      0.67816     -0.058 
C1       C      0.48456      0.3113       0.16978      0.496 
C1       C      0.984559     0.8113       0.16978      0.496 
C1       C      0.984559     0.3113       0.66978      0.496 
C1       C      0.48456      0.8113       0.66978      0.496 
C2       C      0.47259      0.30018      0.16889     -0.07  
C2       C      0.97259      0.80018      0.16889     -0.07  
C2       C      0.97259      0.30018      0.66889     -0.07  
C2       C      0.47259      0.80018      0.66889     -0.07  
C3       C      0.47197      0.28933      0.1571      -0.058 
C3       C      0.97197      0.78933      0.1571      -0.058 
C3       C      0.97197      0.28933      0.6571      -0.058 
C3       C      0.47197      0.78933      0.6571      -0.058 
C3       C      0.39347      0.30816      0.157959    -0.058 
C3       C      0.89347      0.80816      0.157959    -0.058 
C3       C      0.89347      0.30816      0.657959    -0.058 
C3       C      0.39347      0.80816      0.657959    -0.058 
C1       C      0.38844      0.28092      0.15329      0.496 
C1       C      0.88844      0.78092      0.15329      0.496 
C1       C      0.88844      0.28092      0.65329      0.496 
C1       C      0.38844      0.78092      0.65329      0.496 
C2       C      0.38504      0.29596      0.15109     -0.07  
C2       C      0.88504      0.79596      0.15109     -0.07  
C2       C      0.88504      0.29596      0.65109     -0.07  
C2       C      0.38504      0.79596      0.65109     -0.07  
C3       C      0.38883      0.3231       0.15528     -0.058 
C3       C      0.88883      0.8231       0.15528     -0.058 
C3       C      0.88883      0.3231       0.65528     -0.058 
C3       C      0.38883      0.8231       0.65528     -0.058 
C1       C      0.37309      0.34071      0.1397       0.496 
C1       C      0.87309      0.840709     0.1397       0.496 
C1       C      0.87309      0.34071      0.6397       0.496 
C1       C      0.37309      0.840709     0.6397       0.496 
C2       C      0.3795       0.32589      0.142309    -0.07  
C2       C      0.8795       0.82589      0.142309    -0.07  
C2       C      0.8795       0.32589      0.642309    -0.07  
C2       C      0.3795       0.82589      0.642309    -0.07  
C3       C      0.37746      0.298361     0.13776     -0.058 
C3       C      0.87746      0.798359     0.13776     -0.058 
C3       C      0.87746      0.298361     0.63776     -0.058 
C3       C      0.37746      0.798359     0.63776     -0.058 
C3       C      0.37311      0.3135       0.13418     -0.058 
C3       C      0.87311      0.8135       0.13418     -0.058 
C3       C      0.87311      0.3135       0.63418     -0.058 
C3       C      0.37311      0.8135       0.63418     -0.058 
C3       C      0.40471      0.32678      0.0704903   -0.058 
C3       C      0.90471      0.82678      0.0704903   -0.058 
C3       C      0.90471      0.32678      0.57049     -0.058 
C3       C      0.40471      0.82678      0.57049     -0.058 
C3       C      0.39645      0.33485      0.0819903   -0.058 
C3       C      0.89645      0.83485      0.0819903   -0.058 
C3       C      0.89645      0.33485      0.58199     -0.058 
C3       C      0.39645      0.83485      0.58199     -0.058 
C3       C      0.44571      0.26355      0.0929402   -0.058 
C3       C      0.94571      0.76355      0.0929402   -0.058 
C3       C      0.94571      0.26355      0.59294     -0.058 
C3       C      0.44571      0.76355      0.59294     -0.058 
C1       C      0.44016      0.27464      0.0687       0.496 
C1       C      0.94016      0.77464      0.0687       0.496 
C1       C      0.94016      0.27464      0.5687       0.496 
C1       C      0.44016      0.77464      0.5687       0.496 
C2       C      0.43518      0.26807      0.0821096   -0.07  
C2       C      0.93518      0.76807      0.0821096   -0.07  
C2       C      0.93518      0.26807      0.58211     -0.07  
C2       C      0.43518      0.76807      0.58211     -0.07  
C3       C      0.44076      0.25617      0.10578     -0.058 
C3       C      0.94076      0.75617      0.10578     -0.058 
C3       C      0.94076      0.25617      0.60578     -0.058 
C3       C      0.44076      0.75617      0.60578     -0.058 
C1       C      0.41918      0.25095      0.12253      0.496 
C1       C      0.91918      0.75095      0.12253      0.496 
C1       C      0.91918      0.25095      0.62253      0.496 
C1       C      0.41918      0.75095      0.62253      0.496 
C2       C      0.42522      0.25489      0.10825     -0.07  
C2       C      0.92522      0.75489      0.10825     -0.07  
C2       C      0.92522      0.25489      0.60825     -0.07  
C2       C      0.42522      0.75489      0.60825     -0.07  
C3       C      0.41968      0.26846      0.0851602   -0.058 
C3       C      0.91968      0.76846      0.0851602   -0.058 
C3       C      0.91968      0.26846      0.58516     -0.058 
C3       C      0.41968      0.76846      0.58516     -0.058 
C3       C      0.41458      0.26171      0.0984201   -0.058 
C3       C      0.91458      0.76171      0.0984201   -0.058 
C3       C      0.91458      0.26171      0.59842     -0.058 
C3       C      0.41458      0.76171      0.59842     -0.058 
H1       H      0.749672     0.447495     0.413299     0.108 
H1       H      0.249672     0.947495     0.413299     0.108 
H1       H      0.249672     0.447495     0.913299     0.108 
H1       H      0.749672     0.947495     0.913299     0.108 
H1       H      0.776373     0.44121      0.406686     0.108 
H1       H      0.276373     0.94121      0.406686     0.108 
H1       H      0.276373     0.44121      0.906686     0.108 
H1       H      0.776373     0.94121      0.906686     0.108 
H1       H      0.401732     0.315441     0.0677829    0.108 
H1       H      0.901732     0.815441     0.0677829    0.108 
H1       H      0.901732     0.315441     0.567783     0.108 
H1       H      0.401732     0.815441     0.567783     0.108 
H1       H      0.385871     0.330635     0.0858747    0.108 
H1       H      0.885871     0.830635     0.0858747    0.108 
H1       H      0.885871     0.330635     0.585875     0.108 
H1       H      0.385871     0.830635     0.585875     0.108 
H1       H      0.928901     0.347624     0.368168     0.108 
H1       H      0.428901     0.847624     0.368168     0.108 
H1       H      0.428901     0.347624     0.868168     0.108 
H1       H      0.928901     0.847624     0.868168     0.108 
H1       H      0.789301     0.00284576   0.0230845    0.108 
H1       H      0.289301     0.502846     0.0230845    0.108 
H1       H      0.289301     0.00284576   0.523085     0.108 
H1       H      0.789301     0.502846     0.523085     0.108 
H1       H      0.412162     0.273812     0.0774398    0.108 
H1       H      0.912162     0.773812     0.0774398    0.108 
H1       H      0.912162     0.273812     0.57744      0.108 
H1       H      0.412162     0.773812     0.57744      0.108 
H1       H      0.402826     0.261723     0.10105      0.108 
H1       H      0.902826     0.761723     0.10105      0.108 
H1       H      0.902826     0.261723     0.60105      0.108 
H1       H      0.402826     0.761723     0.60105      0.108 
H1       H      0.457414     0.265798     0.091259     0.108 
H1       H      0.957414     0.765797     0.091259     0.108 
H1       H      0.957414     0.265798     0.591259     0.108 
H1       H      0.457414     0.765797     0.591259     0.108 
H1       H      0.448741     0.251598     0.113551     0.108 
H1       H      0.948741     0.751598     0.113551     0.108 
H1       H      0.948741     0.251598     0.613551     0.108 
H1       H      0.448741     0.751598     0.613551     0.108 
H1       H      0.458053     0.312261     0.18482      0.108 
H1       H      0.958053     0.812261     0.18482      0.108 
H1       H      0.958053     0.312261     0.684819     0.108 
H1       H      0.458053     0.812261     0.684819     0.108 
H1       H      0.480043     0.289666     0.148184     0.108 
H1       H      0.980043     0.789666     0.148184     0.108 
H1       H      0.980043     0.289666     0.648184     0.108 
H1       H      0.480043     0.789666     0.648184     0.108 
H1       H      0.375009     0.289099     0.130481     0.108 
H1       H      0.875009     0.789099     0.130481     0.108 
H1       H      0.875009     0.289099     0.630481     0.108 
H1       H      0.375009     0.789099     0.630481     0.108 
H1       H      0.365095     0.315533     0.12544      0.108 
H1       H      0.865095     0.815533     0.12544      0.108 
H1       H      0.865095     0.315533     0.62544      0.108 
H1       H      0.365095     0.815533     0.62544      0.108 
H1       H      0.403        0.305729     0.164901     0.108 
H1       H      0.903        0.805729     0.164901     0.108 
H1       H      0.903        0.305729     0.664901     0.108 
H1       H      0.403        0.805729     0.664901     0.108 
H1       H      0.392241     0.331891     0.162753     0.108 
H1       H      0.892241     0.831891     0.162753     0.108 
H1       H      0.892241     0.331891     0.662753     0.108 
H1       H      0.392241     0.831891     0.662753     0.108 
H1       H      0.331316     0.487543     0.00795328   0.108 
H1       H      0.831316     0.987543     0.00795328   0.108 
H1       H      0.831316     0.487543     0.507953     0.108 
H1       H      0.331316     0.987543     0.507953     0.108 
Cr2      Cr     0.01291      0.42799      0.0947304    1.35  
Cr2      Cr     0.51291      0.92799      0.0947304    1.35  
Cr2      Cr     0.51291      0.42799      0.59473      1.35  
Cr2      Cr     0.01291      0.92799      0.59473      1.35  
Cr1      Cr     0.70846      0.29246      0.3228       1.619 
Cr1      Cr     0.20846      0.79246      0.3228       1.619 
Cr1      Cr     0.20846      0.29246      0.8228       1.619 
Cr1      Cr     0.70846      0.79246      0.8228       1.619 
O2       O      0.93036      0.40982      0.35869     -0.574 
O2       O      0.43036      0.90982      0.35869     -0.574 
O2       O      0.43036      0.40982      0.85869     -0.574 
O2       O      0.93036      0.90982      0.85869     -0.574 
O2       O      0.72646      0.30587      0.3239      -0.574 
O2       O      0.22646      0.80587      0.3239      -0.574 
O2       O      0.22646      0.30587      0.8239      -0.574 
O2       O      0.72646      0.80587      0.8239      -0.574 
O2       O      0.8007       0.32263      0.338859    -0.574 
O2       O      0.3007       0.82263      0.338859    -0.574 
O2       O      0.3007       0.32263      0.838859    -0.574 
O2       O      0.8007       0.82263      0.838859    -0.574 
O2       O      0.82068      0.27416      0.22122     -0.574 
O2       O      0.32068      0.77416      0.22122     -0.574 
O2       O      0.32068      0.27416      0.72122     -0.574 
O2       O      0.82068      0.77416      0.72122     -0.574 
O3       O      0.79523      0.27195      0.21763     -0.438 
O3       O      0.29523      0.77195      0.21763     -0.438 
O3       O      0.29523      0.27195      0.71763     -0.438 
O3       O      0.79523      0.77195      0.71763     -0.438 
O2       O      0.98044      0.42561      0.07701     -0.574 
O2       O      0.48044      0.92561      0.07701     -0.574 
O2       O      0.48044      0.42561      0.57701     -0.574 
O2       O      0.98044      0.92561      0.57701     -0.574 
O3       O      0.99692      0.44003      0.0877595   -0.438 
O3       O      0.49692      0.94003      0.0877595   -0.438 
O3       O      0.49692      0.44003      0.58776     -0.438 
O3       O      0.99692      0.94003      0.58776     -0.438 
O2       O      0.89876      0.47279      0.0875795   -0.574 
O2       O      0.39876      0.97279      0.0875795   -0.574 
O2       O      0.39876      0.47279      0.587579    -0.574 
O2       O      0.89876      0.97279      0.587579    -0.574 
O3       O      0.88451      0.47747      0.107739    -0.438 
O3       O      0.38451      0.97747      0.107739    -0.438 
O3       O      0.38451      0.47747      0.607739    -0.438 
O3       O      0.88451      0.97747      0.607739    -0.438 
O3       O      0.87552      0.39811      0.10125     -0.438 
O3       O      0.37552      0.89811      0.10125     -0.438 
O3       O      0.37552      0.39811      0.60125     -0.438 
O3       O      0.87552      0.89811      0.60125     -0.438 
O2       O      0.86631      0.40693      0.12292     -0.574 
O2       O      0.36631      0.90693      0.12292     -0.574 
O2       O      0.36631      0.40693      0.62292     -0.574 
O2       O      0.86631      0.90693      0.62292     -0.574 
O2       O      0.92195      0.440889     0.19362     -0.574 
O2       O      0.42195      0.940889     0.19362     -0.574 
O2       O      0.42195      0.440889     0.69362     -0.574 
O2       O      0.92195      0.940889     0.69362     -0.574 
O2       O      0.879439     0.39622      0.14839     -0.574 
O2       O      0.379439     0.89622      0.14839     -0.574 
O2       O      0.379439     0.39622      0.64839     -0.574 
O2       O      0.879439     0.89622      0.64839     -0.574 
O2       O      0.95379      0.47624      0.18523     -0.574 
O2       O      0.45379      0.97624      0.18523     -0.574 
O2       O      0.45379      0.47624      0.68523     -0.574 
O2       O      0.95379      0.97624      0.68523     -0.574 
O2       O      0.930549     0.46912      0.18927     -0.574 
O2       O      0.430549     0.96912      0.18927     -0.574 
O2       O      0.430549     0.46912      0.68927     -0.574 
O2       O      0.930549     0.96912      0.68927     -0.574 
O2       O      0.42722      0.00664011   0.11692     -0.574 
O2       O      0.92722      0.50664      0.11692     -0.574 
O2       O      0.92722      0.00664011   0.61692     -0.574 
O2       O      0.42722      0.50664      0.61692     -0.574 
O3       O      0.90475      0.49662      0.12647     -0.438 
O3       O      0.40475      0.99662      0.12647     -0.438 
O3       O      0.40475      0.49662      0.62647     -0.438 
O3       O      0.90475      0.99662      0.62647     -0.438 
F1       F      0.0252597    0.4475       0.0942005   -0.547 
F1       F      0.52526      0.9475       0.0942005   -0.547 
F1       F      0.52526      0.4475       0.5942      -0.547 
F1       F      0.0252597    0.9475       0.5942      -0.547 
C3       C      0.93066      0.39071      0.3795      -0.058 
C3       C      0.43066      0.89071      0.3795      -0.058 
C3       C      0.43066      0.39071      0.8795      -0.058 
C3       C      0.93066      0.89071      0.8795      -0.058 
C3       C      0.75507      0.312        0.33163     -0.058 
C3       C      0.25507      0.812        0.33163     -0.058 
C3       C      0.25507      0.312        0.83163     -0.058 
C3       C      0.75507      0.812        0.83163     -0.058 
C3       C      0.77052      0.3153       0.335059    -0.058 
C3       C      0.27052      0.8153       0.335059    -0.058 
C3       C      0.27052      0.3153       0.835059    -0.058 
C3       C      0.77052      0.8153       0.835059    -0.058 
C3       C      0.79691      0.24748      0.23623     -0.058 
C3       C      0.29691      0.74748      0.23623     -0.058 
C3       C      0.29691      0.24748      0.73623     -0.058 
C3       C      0.79691      0.74748      0.73623     -0.058 
C1       C      0.80736      0.27033      0.226        0.496 
C1       C      0.30736      0.770329     0.226        0.496 
C1       C      0.30736      0.27033      0.726        0.496 
C1       C      0.80736      0.770329     0.726        0.496 
C2       C      0.80736      0.2594       0.23755     -0.07  
C2       C      0.30736      0.7594       0.23755     -0.07  
C2       C      0.30736      0.2594       0.73755     -0.07  
C2       C      0.80736      0.7594       0.73755     -0.07  
C3       C      0.82141      0.25632      0.24506     -0.058 
C3       C      0.32141      0.75632      0.24506     -0.058 
C3       C      0.32141      0.25632      0.74506     -0.058 
C3       C      0.82141      0.75632      0.74506     -0.058 
C3       C      0.95923      0.44769      0.0718394   -0.058 
C3       C      0.45923      0.94769      0.0718394   -0.058 
C3       C      0.45923      0.44769      0.571839    -0.058 
C3       C      0.95923      0.94769      0.571839    -0.058 
C1       C      0.984559     0.4387       0.0802203    0.496 
C1       C      0.48456      0.9387       0.0802203    0.496 
C1       C      0.48456      0.4387       0.58022      0.496 
C1       C      0.984559     0.9387       0.58022      0.496 
C2       C      0.97259      0.449819     0.0811104   -0.07  
C2       C      0.47259      0.949819     0.0811104   -0.07  
C2       C      0.47259      0.449819     0.58111     -0.07  
C2       C      0.97259      0.949819     0.58111     -0.07  
C3       C      0.97197      0.46067      0.0928997   -0.058 
C3       C      0.47197      0.96067      0.0928997   -0.058 
C3       C      0.47197      0.46067      0.5929      -0.058 
C3       C      0.97197      0.96067      0.5929      -0.058 
C3       C      0.89347      0.44184      0.09204     -0.058 
C3       C      0.39347      0.94184      0.09204     -0.058 
C3       C      0.39347      0.44184      0.59204     -0.058 
C3       C      0.89347      0.94184      0.59204     -0.058 
C1       C      0.88844      0.46908      0.0967098    0.496 
C1       C      0.38844      0.96908      0.0967098    0.496 
C1       C      0.38844      0.46908      0.59671      0.496 
C1       C      0.88844      0.96908      0.59671      0.496 
C2       C      0.88504      0.45404      0.0989096   -0.07  
C2       C      0.38504      0.95404      0.0989096   -0.07  
C2       C      0.38504      0.45404      0.59891     -0.07  
C2       C      0.88504      0.95404      0.59891     -0.07  
C3       C      0.88883      0.4269       0.0947203   -0.058 
C3       C      0.38883      0.9269       0.0947203   -0.058 
C3       C      0.38883      0.4269       0.59472     -0.058 
C3       C      0.88883      0.9269       0.59472     -0.058 
C1       C      0.87309      0.40929      0.110299     0.496 
C1       C      0.37309      0.90929      0.110299     0.496 
C1       C      0.37309      0.40929      0.610299     0.496 
C1       C      0.87309      0.90929      0.610299     0.496 
C2       C      0.8795       0.42411      0.10769     -0.07  
C2       C      0.3795       0.92411      0.10769     -0.07  
C2       C      0.3795       0.42411      0.60769     -0.07  
C2       C      0.8795       0.92411      0.60769     -0.07  
C3       C      0.87746      0.45164      0.11224     -0.058 
C3       C      0.37746      0.95164      0.11224     -0.058 
C3       C      0.37746      0.45164      0.612239    -0.058 
C3       C      0.87746      0.95164      0.612239    -0.058 
C3       C      0.87311      0.4365       0.11582     -0.058 
C3       C      0.37311      0.9365       0.11582     -0.058 
C3       C      0.37311      0.4365       0.61582     -0.058 
C3       C      0.87311      0.9365       0.61582     -0.058 
C3       C      0.90471      0.42322      0.17951     -0.058 
C3       C      0.40471      0.92322      0.17951     -0.058 
C3       C      0.40471      0.42322      0.67951     -0.058 
C3       C      0.90471      0.92322      0.67951     -0.058 
C3       C      0.89645      0.41515      0.16801     -0.058 
C3       C      0.39645      0.91515      0.16801     -0.058 
C3       C      0.39645      0.41515      0.66801     -0.058 
C3       C      0.89645      0.91515      0.66801     -0.058 
C3       C      0.94571      0.48645      0.15706     -0.058 
C3       C      0.44571      0.98645      0.15706     -0.058 
C3       C      0.44571      0.48645      0.65706     -0.058 
C3       C      0.94571      0.98645      0.65706     -0.058 
C1       C      0.94016      0.47536      0.181299     0.496 
C1       C      0.44016      0.97536      0.181299     0.496 
C1       C      0.44016      0.47536      0.681299     0.496 
C1       C      0.94016      0.97536      0.681299     0.496 
C2       C      0.93518      0.48193      0.16789     -0.07  
C2       C      0.43518      0.98193      0.16789     -0.07  
C2       C      0.43518      0.48193      0.66789     -0.07  
C2       C      0.93518      0.98193      0.66789     -0.07  
C3       C      0.94076      0.49383      0.14422     -0.058 
C3       C      0.44076      0.99383      0.14422     -0.058 
C3       C      0.44076      0.49383      0.64422     -0.058 
C3       C      0.94076      0.99383      0.64422     -0.058 
C1       C      0.91918      0.49905      0.12747      0.496 
C1       C      0.41918      0.99905      0.12747      0.496 
C1       C      0.41918      0.49905      0.62747      0.496 
C1       C      0.91918      0.99905      0.62747      0.496 
C2       C      0.92522      0.49511      0.14175     -0.07  
C2       C      0.42522      0.99511      0.14175     -0.07  
C2       C      0.42522      0.49511      0.64175     -0.07  
C2       C      0.92522      0.99511      0.64175     -0.07  
C3       C      0.91968      0.48154      0.16484     -0.058 
C3       C      0.41968      0.98154      0.16484     -0.058 
C3       C      0.41968      0.48154      0.66484     -0.058 
C3       C      0.91968      0.98154      0.66484     -0.058 
C3       C      0.91458      0.48829      0.15158     -0.058 
C3       C      0.41458      0.98829      0.15158     -0.058 
C3       C      0.41458      0.48829      0.65158     -0.058 
C3       C      0.91458      0.98829      0.65158     -0.058 
H1       H      0.749672     0.302505     0.3367       0.108 
H1       H      0.249672     0.802505     0.3367       0.108 
H1       H      0.249672     0.302505     0.8367       0.108 
H1       H      0.749672     0.802505     0.8367       0.108 
H1       H      0.776373     0.308789     0.343313     0.108 
H1       H      0.276373     0.808789     0.343313     0.108 
H1       H      0.276373     0.308789     0.843313     0.108 
H1       H      0.776373     0.808789     0.843313     0.108 
H1       H      0.901732     0.434559     0.182218     0.108 
H1       H      0.401732     0.934559     0.182218     0.108 
H1       H      0.401732     0.434559     0.682218     0.108 
H1       H      0.901732     0.934559     0.682218     0.108 
H1       H      0.885871     0.419364     0.164125     0.108 
H1       H      0.385871     0.919364     0.164125     0.108 
H1       H      0.385871     0.419364     0.664125     0.108 
H1       H      0.885871     0.919364     0.664125     0.108 
H1       H      0.928901     0.402375     0.381832     0.108 
H1       H      0.428901     0.902375     0.381832     0.108 
H1       H      0.428901     0.402375     0.881832     0.108 
H1       H      0.928901     0.902375     0.881832     0.108 
H1       H      0.789301     0.247154     0.226915     0.108 
H1       H      0.289301     0.747154     0.226915     0.108 
H1       H      0.289301     0.247154     0.726915     0.108 
H1       H      0.789301     0.747154     0.726915     0.108 
H1       H      0.912162     0.476187     0.172561     0.108 
H1       H      0.412162     0.976187     0.172561     0.108 
H1       H      0.412162     0.476187     0.672561     0.108 
H1       H      0.912162     0.976187     0.672561     0.108 
H1       H      0.902826     0.488276     0.14895      0.108 
H1       H      0.402826     0.988276     0.14895      0.108 
H1       H      0.402826     0.488276     0.64895      0.108 
H1       H      0.902826     0.988276     0.64895      0.108 
H1       H      0.957414     0.484203     0.15874      0.108 
H1       H      0.457414     0.984203     0.15874      0.108 
H1       H      0.457414     0.484203     0.65874      0.108 
H1       H      0.957414     0.984203     0.65874      0.108 
H1       H      0.948741     0.498402     0.136449     0.108 
H1       H      0.448741     0.998402     0.136449     0.108 
H1       H      0.448741     0.498402     0.636449     0.108 
H1       H      0.948741     0.998402     0.636449     0.108 
H1       H      0.958053     0.437739     0.0651802    0.108 
H1       H      0.458053     0.937739     0.0651802    0.108 
H1       H      0.458053     0.437739     0.56518      0.108 
H1       H      0.958053     0.937739     0.56518      0.108 
H1       H      0.980043     0.460334     0.101816     0.108 
H1       H      0.480043     0.960334     0.101816     0.108 
H1       H      0.480043     0.460334     0.601816     0.108 
H1       H      0.980043     0.960334     0.601816     0.108 
H1       H      0.875009     0.460902     0.119519     0.108 
H1       H      0.375009     0.960902     0.119519     0.108 
H1       H      0.375009     0.460902     0.619519     0.108 
H1       H      0.875009     0.960902     0.619519     0.108 
H1       H      0.865095     0.434466     0.124561     0.108 
H1       H      0.365095     0.934466     0.124561     0.108 
H1       H      0.365095     0.434466     0.624561     0.108 
H1       H      0.865095     0.934466     0.624561     0.108 
H1       H      0.903        0.444271     0.0850983    0.108 
H1       H      0.403        0.944271     0.0850983    0.108 
H1       H      0.403        0.444271     0.585098     0.108 
H1       H      0.903        0.944271     0.585098     0.108 
H1       H      0.892241     0.418109     0.0872475    0.108 
H1       H      0.392241     0.918109     0.0872475    0.108 
H1       H      0.392241     0.418109     0.587248     0.108 
H1       H      0.892241     0.918109     0.587248     0.108 
H1       H      0.831316     0.262456     0.242047     0.108 
H1       H      0.331316     0.762456     0.242047     0.108 
H1       H      0.331316     0.262456     0.742047     0.108 
H1       H      0.831316     0.762456     0.742047     0.108 
Cr1      Cr     0.92908      0.40227      0.32092      1.619 
Cr1      Cr     0.42908      0.90227      0.32092      1.619 
Cr1      Cr     0.42908      0.40227      0.82092      1.619 
Cr1      Cr     0.92908      0.90227      0.82092      1.619 
Cr1      Cr     0.82092      0.34773      0.32092      1.619 
Cr1      Cr     0.32092      0.84773      0.32092      1.619 
Cr1      Cr     0.32092      0.34773      0.82092      1.619 
Cr1      Cr     0.82092      0.84773      0.82092      1.619 
Cr2      Cr     0.82092      0.40227      0.42908      1.35  
Cr2      Cr     0.32092      0.90227      0.42908      1.35  
Cr2      Cr     0.32092      0.40227      0.92908      1.35  
Cr2      Cr     0.82092      0.90227      0.92908      1.35  
F1       F      0.81102      0.38815      0.43898     -0.547 
F1       F      0.31102      0.88815      0.43898     -0.547 
F1       F      0.31102      0.38815      0.93898     -0.547 
F1       F      0.81102      0.88815      0.93898     -0.547 
Cr1      Cr     0.92908      0.34773      0.42908      1.619 
Cr1      Cr     0.42908      0.84773      0.42908      1.619 
Cr1      Cr     0.42908      0.34773      0.92908      1.619 
Cr1      Cr     0.92908      0.84773      0.92908      1.619 
Cr1      Cr     0.82092      0.42908      0.40227      1.619 
Cr1      Cr     0.32092      0.92908      0.40227      1.619 
Cr1      Cr     0.32092      0.42908      0.90227      1.619 
Cr1      Cr     0.82092      0.92908      0.90227      1.619 
Cr1      Cr     0.82092      0.32092      0.34773      1.619 
Cr1      Cr     0.32092      0.82092      0.34773      1.619 
Cr1      Cr     0.32092      0.32092      0.84773      1.619 
Cr1      Cr     0.82092      0.82092      0.84773      1.619 
Cr1      Cr     0.92908      0.32092      0.40227      1.619 
Cr1      Cr     0.42908      0.82092      0.40227      1.619 
Cr1      Cr     0.42908      0.32092      0.90227      1.619 
Cr1      Cr     0.92908      0.82092      0.90227      1.619 
Cr1      Cr     0.92908      0.42908      0.34773      1.619 
Cr1      Cr     0.42908      0.92908      0.34773      1.619 
Cr1      Cr     0.42908      0.42908      0.84773      1.619 
Cr1      Cr     0.92908      0.92908      0.84773      1.619 
Cr2      Cr     0.90227      0.32092      0.42908      1.35  
Cr2      Cr     0.40227      0.82092      0.42908      1.35  
Cr2      Cr     0.40227      0.32092      0.92908      1.35  
Cr2      Cr     0.90227      0.82092      0.92908      1.35  
F1       F      0.88815      0.31102      0.43898     -0.547 
F1       F      0.38815      0.81102      0.43898     -0.547 
F1       F      0.38815      0.31102      0.93898     -0.547 
F1       F      0.88815      0.81102      0.93898     -0.547 
Cr2      Cr     0.84773      0.32092      0.32092      1.35  
Cr2      Cr     0.34773      0.82092      0.32092      1.35  
Cr2      Cr     0.34773      0.32092      0.82092      1.35  
Cr2      Cr     0.84773      0.82092      0.82092      1.35  
F1       F      0.861849     0.31102      0.31102     -0.547 
F1       F      0.361849     0.81102      0.31102     -0.547 
F1       F      0.361849     0.31102      0.81102     -0.547 
F1       F      0.861849     0.81102      0.81102     -0.547 
Cr2      Cr     0.90227      0.42908      0.32092      1.35  
Cr2      Cr     0.40227      0.92908      0.32092      1.35  
Cr2      Cr     0.40227      0.42908      0.82092      1.35  
Cr2      Cr     0.90227      0.92908      0.82092      1.35  
F1       F      0.88815      0.43898      0.31102     -0.547 
F1       F      0.38815      0.93898      0.31102     -0.547 
F1       F      0.38815      0.43898      0.81102     -0.547 
F1       F      0.88815      0.93898      0.81102     -0.547 
Cr1      Cr     0.84773      0.42908      0.42908      1.619 
Cr1      Cr     0.34773      0.92908      0.42908      1.619 
Cr1      Cr     0.34773      0.42908      0.92908      1.619 
Cr1      Cr     0.84773      0.92908      0.92908      1.619 
Cr1      Cr     0.15227      0.17908      0.17908      1.619 
Cr1      Cr     0.65227      0.67908      0.17908      1.619 
Cr1      Cr     0.65227      0.17908      0.67908      1.619 
Cr1      Cr     0.15227      0.67908      0.67908      1.619 
Cr1      Cr     0.0977304    0.0709201    0.17908      1.619 
Cr1      Cr     0.59773      0.57092      0.17908      1.619 
Cr1      Cr     0.59773      0.0709201    0.67908      1.619 
Cr1      Cr     0.0977304    0.57092      0.67908      1.619 
Cr1      Cr     0.15227      0.0709201    0.0709201    1.619 
Cr1      Cr     0.65227      0.57092      0.0709201    1.619 
Cr1      Cr     0.65227      0.0709201    0.57092      1.619 
Cr1      Cr     0.15227      0.57092      0.57092      1.619 
Cr1      Cr     0.0977304    0.17908      0.0709201    1.619 
Cr1      Cr     0.59773      0.67908      0.0709201    1.619 
Cr1      Cr     0.59773      0.17908      0.57092      1.619 
Cr1      Cr     0.0977304    0.67908      0.57092      1.619 
Cr1      Cr     0.17908      0.0709201    0.0977304    1.619 
Cr1      Cr     0.67908      0.57092      0.0977304    1.619 
Cr1      Cr     0.67908      0.0709201    0.59773      1.619 
Cr1      Cr     0.17908      0.57092      0.59773      1.619 
Cr1      Cr     0.0709201    0.0709201    0.15227      1.619 
Cr1      Cr     0.57092      0.57092      0.15227      1.619 
Cr1      Cr     0.57092      0.0709201    0.65227      1.619 
Cr1      Cr     0.0709201    0.57092      0.65227      1.619 
Cr2      Cr     0.0709201    0.17908      0.0977304    1.35  
Cr2      Cr     0.57092      0.67908      0.0977304    1.35  
Cr2      Cr     0.57092      0.17908      0.59773      1.35  
Cr2      Cr     0.0709201    0.67908      0.59773      1.35  
F1       F      0.0610202    0.18898      0.11185     -0.547 
F1       F      0.56102      0.68898      0.11185     -0.547 
F1       F      0.56102      0.18898      0.61185     -0.547 
F1       F      0.0610202    0.68898      0.61185     -0.547 
Cr1      Cr     0.17908      0.17908      0.15227      1.619 
Cr1      Cr     0.67908      0.67908      0.15227      1.619 
Cr1      Cr     0.67908      0.17908      0.65227      1.619 
Cr1      Cr     0.17908      0.67908      0.65227      1.619 
Cr1      Cr     0.0709201    0.15227      0.0709201    1.619 
Cr1      Cr     0.57092      0.65227      0.0709201    1.619 
Cr1      Cr     0.57092      0.15227      0.57092      1.619 
Cr1      Cr     0.0709201    0.65227      0.57092      1.619 
Cr2      Cr     0.0709201    0.0977304    0.17908      1.35  
Cr2      Cr     0.57092      0.59773      0.17908      1.35  
Cr2      Cr     0.57092      0.0977304    0.67908      1.35  
Cr2      Cr     0.0709201    0.59773      0.67908      1.35  
F1       F      0.0610202    0.11185      0.18898     -0.547 
F1       F      0.56102      0.61185      0.18898     -0.547 
F1       F      0.56102      0.11185      0.68898     -0.547 
F1       F      0.0610202    0.61185      0.68898     -0.547 
Cr2      Cr     0.17908      0.15227      0.17908      1.35  
Cr2      Cr     0.67908      0.65227      0.17908      1.35  
Cr2      Cr     0.67908      0.15227      0.67908      1.35  
Cr2      Cr     0.17908      0.65227      0.67908      1.35  
F1       F      0.18898      0.138151     0.18898     -0.547 
F1       F      0.68898      0.638149     0.18898     -0.547 
F1       F      0.68898      0.138151     0.68898     -0.547 
F1       F      0.18898      0.638149     0.68898     -0.547 
Cr2      Cr     0.17908      0.0977304    0.0709201    1.35  
Cr2      Cr     0.67908      0.59773      0.0709201    1.35  
Cr2      Cr     0.67908      0.0977304    0.57092      1.35  
Cr2      Cr     0.17908      0.59773      0.57092      1.35  
F1       F      0.18898      0.11185      0.0610202   -0.547 
F1       F      0.68898      0.61185      0.0610202   -0.547 
F1       F      0.68898      0.11185      0.56102     -0.547 
F1       F      0.18898      0.61185      0.56102     -0.547 
Cr1      Cr     0.64205      0.35795      0            1.619 
Cr1      Cr     0.14205      0.857949     0            1.619 
Cr1      Cr     0.14205      0.35795      0.5          1.619 
Cr1      Cr     0.64205      0.857949     0.5          1.619 
O1       O      0.658115     0.341885     0           -0.853 
O1       O      0.158115     0.841885     0           -0.853 
O1       O      0.158115     0.341885     0.5         -0.853 
O1       O      0.658115     0.841885     0.5         -0.853 
Cr1      Cr     0.10795      0.39205      0            1.619 
Cr1      Cr     0.60795      0.89205      0            1.619 
Cr1      Cr     0.60795      0.39205      0.5          1.619 
Cr1      Cr     0.10795      0.89205      0.5          1.619 
O1       O      0.0918847    0.408115     0           -0.853 
O1       O      0.591885     0.908115     0           -0.853 
O1       O      0.591885     0.408115     0.5         -0.853 
O1       O      0.0918847    0.908115     0.5         -0.853 
Cr1      Cr     0.60795      0.35795      0.249999     1.619 
Cr1      Cr     0.10795      0.857949     0.249999     1.619 
Cr1      Cr     0.10795      0.35795      0.749999     1.619 
Cr1      Cr     0.60795      0.857949     0.749999     1.619 
O1       O      0.591885     0.341885     0.249999    -0.853 
O1       O      0.0918847    0.841885     0.249999    -0.853 
O1       O      0.0918847    0.341885     0.749999    -0.853 
O1       O      0.591885     0.841885     0.749999    -0.853 
Cr1      Cr     0.14205      0.39205      0.249999     1.619 
Cr1      Cr     0.64205      0.89205      0.249999     1.619 
Cr1      Cr     0.64205      0.39205      0.749999     1.619 
Cr1      Cr     0.14205      0.89205      0.749999     1.619 
O1       O      0.158115     0.408115     0.249999    -0.853 
O1       O      0.658115     0.908115     0.249999    -0.853 
O1       O      0.658115     0.408115     0.749999    -0.853 
O1       O      0.158115     0.908115     0.749999    -0.853 
Cr1      Cr     0.5          0.14205      0.35795      1.619 
Cr1      Cr     0            0.64205      0.35795      1.619 
Cr1      Cr     0            0.14205      0.857949     1.619 
Cr1      Cr     0.5          0.64205      0.857949     1.619 
O1       O      0.5          0.158115     0.341885    -0.853 
O1       O      1            0.658115     0.341885    -0.853 
O1       O      1            0.158115     0.841885    -0.853 
O1       O      0.5          0.658115     0.841885    -0.853 
Cr1      Cr     0            0.10795      0.39205      1.619 
Cr1      Cr     0.5          0.60795      0.39205      1.619 
Cr1      Cr     0.5          0.10795      0.89205      1.619 
Cr1      Cr     0            0.60795      0.89205      1.619 
O1       O      1            0.0918847    0.408115    -0.853 
O1       O      0.5          0.591885     0.408115    -0.853 
O1       O      0.5          0.0918847    0.908115    -0.853 
O1       O      1            0.591885     0.908115    -0.853 
Cr1      Cr     0.749999     0.10795      0.35795      1.619 
Cr1      Cr     0.249999     0.60795      0.35795      1.619 
Cr1      Cr     0.249999     0.10795      0.857949     1.619 
Cr1      Cr     0.749999     0.60795      0.857949     1.619 
O1       O      0.749999     0.0918847    0.341885    -0.853 
O1       O      0.249999     0.591885     0.341885    -0.853 
O1       O      0.249999     0.0918847    0.841885    -0.853 
O1       O      0.749999     0.591885     0.841885    -0.853 
Cr2      Cr     0.249999     0.14205      0.39205      1.35  
Cr2      Cr     0.749999     0.64205      0.39205      1.35  
Cr2      Cr     0.749999     0.14205      0.89205      1.35  
Cr2      Cr     0.249999     0.64205      0.89205      1.35  
O1       O      0.249999     0.158115     0.408115    -0.853 
O1       O      0.749999     0.658115     0.408115    -0.853 
O1       O      0.749999     0.158115     0.908115    -0.853 
O1       O      0.249999     0.658115     0.908115    -0.853 
F1       F      0.249999     0.12523      0.37523     -0.547 
F1       F      0.749999     0.62523      0.37523     -0.547 
F1       F      0.749999     0.12523      0.87523     -0.547 
F1       F      0.249999     0.62523      0.87523     -0.547 
Cr2      Cr     0.857949     0            0.14205      1.35  
Cr2      Cr     0.35795      0.5          0.14205      1.35  
Cr2      Cr     0.35795      0            0.64205      1.35  
Cr2      Cr     0.857949     0.5          0.64205      1.35  
O1       O      0.841885     0            0.158115    -0.853 
O1       O      0.341885     0.5          0.158115    -0.853 
O1       O      0.341885     0            0.658115    -0.853 
O1       O      0.841885     0.5          0.658115    -0.853 
F1       F      0.87477      0            0.12523     -0.547 
F1       F      0.37477      0.5          0.12523     -0.547 
F1       F      0.37477      0            0.62523     -0.547 
F1       F      0.87477      0.5          0.62523     -0.547 
Cr2      Cr     0.39205      0            0.10795      1.35  
Cr2      Cr     0.89205      0.5          0.10795      1.35  
Cr2      Cr     0.89205      0            0.60795      1.35  
Cr2      Cr     0.39205      0.5          0.60795      1.35  
O1       O      0.408115     0            0.0918847   -0.853 
O1       O      0.908115     0.5          0.0918847   -0.853 
O1       O      0.908115     0            0.591885    -0.853 
O1       O      0.408115     0.5          0.591885    -0.853 
F1       F      0.37523      0            0.12477     -0.547 
F1       F      0.87523      0.5          0.12477     -0.547 
F1       F      0.87523      0            0.62477     -0.547 
F1       F      0.37523      0.5          0.62477     -0.547 
Cr1      Cr     0.857949     0.249999     0.10795      1.619 
Cr1      Cr     0.35795      0.749999     0.10795      1.619 
Cr1      Cr     0.35795      0.249999     0.60795      1.619 
Cr1      Cr     0.857949     0.749999     0.60795      1.619 
O1       O      0.841885     0.249999     0.0918847   -0.853 
O1       O      0.341885     0.749999     0.0918847   -0.853 
O1       O      0.341885     0.249999     0.591885    -0.853 
O1       O      0.841885     0.749999     0.591885    -0.853 
Cr2      Cr     0.39205      0.249999     0.14205      1.35  
Cr2      Cr     0.89205      0.749999     0.14205      1.35  
Cr2      Cr     0.89205      0.249999     0.64205      1.35  
Cr2      Cr     0.39205      0.749999     0.64205      1.35  
O1       O      0.408115     0.249999     0.158115    -0.853 
O1       O      0.908115     0.749999     0.158115    -0.853 
O1       O      0.908115     0.249999     0.658115    -0.853 
O1       O      0.408115     0.749999     0.658115    -0.853 
F1       F      0.37523      0.249999     0.12523     -0.547 
F1       F      0.87523      0.749999     0.12523     -0.547 
F1       F      0.87523      0.249999     0.62523     -0.547 
F1       F      0.37523      0.749999     0.62523     -0.547 
Cr2      Cr     0.857949     0.14205      0            1.35  
Cr2      Cr     0.35795      0.64205      0            1.35  
Cr2      Cr     0.35795      0.14205      0.5          1.35  
Cr2      Cr     0.857949     0.64205      0.5          1.35  
O1       O      0.841885     0.158115     0           -0.853 
O1       O      0.341885     0.658115     0           -0.853 
O1       O      0.341885     0.158115     0.5         -0.853 
O1       O      0.841885     0.658115     0.5         -0.853 
F1       F      0.87477      0.12523      0           -0.547 
F1       F      0.37477      0.62523      0           -0.547 
F1       F      0.37477      0.12523      0.5         -0.547 
F1       F      0.87477      0.62523      0.5         -0.547 
Cr1      Cr     0.39205      0.10795      0            1.619 
Cr1      Cr     0.89205      0.60795      0            1.619 
Cr1      Cr     0.89205      0.10795      0.5          1.619 
Cr1      Cr     0.39205      0.60795      0.5          1.619 
O1       O      0.408115     0.0918847    0           -0.853 
O1       O      0.908115     0.591885     0           -0.853 
O1       O      0.908115     0.0918847    0.5         -0.853 
O1       O      0.408115     0.591885     0.5         -0.853 
Cr2      Cr     0.39205      0.14205      0.249999     1.35  
Cr2      Cr     0.89205      0.64205      0.249999     1.35  
Cr2      Cr     0.89205      0.14205      0.749999     1.35  
Cr2      Cr     0.39205      0.64205      0.749999     1.35  
O1       O      0.408115     0.158115     0.249999    -0.853 
O1       O      0.908115     0.658115     0.249999    -0.853 
O1       O      0.908115     0.158115     0.749999    -0.853 
O1       O      0.408115     0.658115     0.749999    -0.853 
F1       F      0.37523      0.12523      0.249999    -0.547 
F1       F      0.87523      0.62523      0.249999    -0.547 
F1       F      0.87523      0.12523      0.749999    -0.547 
F1       F      0.37523      0.62523      0.749999    -0.547 
Cr2      Cr     0.857949     0.10795      0.249999     1.35  
Cr2      Cr     0.35795      0.60795      0.249999     1.35  
Cr2      Cr     0.35795      0.10795      0.749999     1.35  
Cr2      Cr     0.857949     0.60795      0.749999     1.35  
O1       O      0.841885     0.0918847    0.249999    -0.853 
O1       O      0.341885     0.591885     0.249999    -0.853 
O1       O      0.341885     0.0918847    0.749999    -0.853 
O1       O      0.841885     0.591885     0.749999    -0.853 
F1       F      0.87477      0.12477      0.249999    -0.547 
F1       F      0.37477      0.62477      0.249999    -0.547 
F1       F      0.37477      0.12477      0.749999    -0.547 
F1       F      0.87477      0.62477      0.749999    -0.547 
Cr1      Cr     0.5          0.35795      0.14205      1.619 
Cr1      Cr     0            0.857949     0.14205      1.619 
Cr1      Cr     0            0.35795      0.64205      1.619 
Cr1      Cr     0.5          0.857949     0.64205      1.619 
O1       O      0.5          0.341885     0.158115    -0.853 
O1       O      1            0.841885     0.158115    -0.853 
O1       O      1            0.341885     0.658115    -0.853 
O1       O      0.5          0.841885     0.658115    -0.853 
Cr1      Cr     1            0.39205      0.10795      1.619 
Cr1      Cr     0.5          0.89205      0.10795      1.619 
Cr1      Cr     0.5          0.39205      0.60795      1.619 
Cr1      Cr     1            0.89205      0.60795      1.619 
O1       O      1            0.408115     0.0918847   -0.853 
O1       O      0.5          0.908115     0.0918847   -0.853 
O1       O      0.5          0.408115     0.591885    -0.853 
O1       O      1            0.908115     0.591885    -0.853 
Cr2      Cr     0.249999     0.39205      0.14205      1.35  
Cr2      Cr     0.749999     0.89205      0.14205      1.35  
Cr2      Cr     0.749999     0.39205      0.64205      1.35  
Cr2      Cr     0.249999     0.89205      0.64205      1.35  
O1       O      0.249999     0.408115     0.158115    -0.853 
O1       O      0.749999     0.908115     0.158115    -0.853 
O1       O      0.749999     0.408115     0.658115    -0.853 
O1       O      0.249999     0.908115     0.658115    -0.853 
F1       F      0.249999     0.37523      0.12523     -0.547 
F1       F      0.749999     0.87523      0.12523     -0.547 
F1       F      0.749999     0.37523      0.62523     -0.547 
F1       F      0.249999     0.87523      0.62523     -0.547 
Cr1      Cr     0.749999     0.35795      0.10795      1.619 
Cr1      Cr     0.249999     0.857949     0.10795      1.619 
Cr1      Cr     0.249999     0.35795      0.60795      1.619 
Cr1      Cr     0.749999     0.857949     0.60795      1.619 
O1       O      0.749999     0.341885     0.0918847   -0.853 
O1       O      0.249999     0.841885     0.0918847   -0.853 
O1       O      0.249999     0.341885     0.591885    -0.853 
O1       O      0.749999     0.841885     0.591885    -0.853 
Cr1      Cr     0.64205      0            0.35795      1.619 
Cr1      Cr     0.14205      0.5          0.35795      1.619 
Cr1      Cr     0.14205      0            0.857949     1.619 
Cr1      Cr     0.64205      0.5          0.857949     1.619 
O1       O      0.658115     0            0.341885    -0.853 
O1       O      0.158115     0.5          0.341885    -0.853 
O1       O      0.158115     0            0.841885    -0.853 
O1       O      0.658115     0.5          0.841885    -0.853 
Cr1      Cr     0.10795      0            0.39205      1.619 
Cr1      Cr     0.60795      0.5          0.39205      1.619 
Cr1      Cr     0.60795      0            0.89205      1.619 
Cr1      Cr     0.10795      0.5          0.89205      1.619 
O1       O      0.0918847    0            0.408115    -0.853 
O1       O      0.591885     0.5          0.408115    -0.853 
O1       O      0.591885     0            0.908115    -0.853 
O1       O      0.0918847    0.5          0.908115    -0.853 
Cr1      Cr     0.14205      0.249999     0.39205      1.619 
Cr1      Cr     0.64205      0.749999     0.39205      1.619 
Cr1      Cr     0.64205      0.249999     0.89205      1.619 
Cr1      Cr     0.14205      0.749999     0.89205      1.619 
O1       O      0.158115     0.249999     0.408115    -0.853 
O1       O      0.658115     0.749999     0.408115    -0.853 
O1       O      0.658115     0.249999     0.908115    -0.853 
O1       O      0.158115     0.749999     0.908115    -0.853 
Cr1      Cr     0.60795      0.249999     0.35795      1.619 
Cr1      Cr     0.10795      0.749999     0.35795      1.619 
Cr1      Cr     0.10795      0.249999     0.857949     1.619 
Cr1      Cr     0.60795      0.749999     0.857949     1.619 
O1       O      0.591885     0.249999     0.341885    -0.853 
O1       O      0.0918847    0.749999     0.341885    -0.853 
O1       O      0.0918847    0.249999     0.841885    -0.853 
O1       O      0.591885     0.749999     0.841885    -0.853 
Cr1      Cr     0.625        0.35421      0.125        1.619 
Cr1      Cr     0.125        0.85421      0.125        1.619 
Cr1      Cr     0.125        0.35421      0.625        1.619 
Cr1      Cr     0.625        0.85421      0.625        1.619 
Cr1      Cr     0.125        0.39579      0.125        1.619 
Cr1      Cr     0.625        0.895789     0.125        1.619 
Cr1      Cr     0.625        0.39579      0.625        1.619 
Cr1      Cr     0.125        0.895789     0.625        1.619 
Cr1      Cr     0.625        0.125        0.35421      1.619 
Cr1      Cr     0.125        0.625        0.35421      1.619 
Cr1      Cr     0.125        0.125        0.85421      1.619 
Cr1      Cr     0.625        0.625        0.85421      1.619 
Cr1      Cr     0.125        0.125        0.39579      1.619 
Cr1      Cr     0.625        0.625        0.39579      1.619 
Cr1      Cr     0.625        0.125        0.895789     1.619 
Cr1      Cr     0.125        0.625        0.895789     1.619 
Cr2      Cr     0.85421      0.125        0.125        1.35  
Cr2      Cr     0.35421      0.625        0.125        1.35  
Cr2      Cr     0.35421      0.125        0.625        1.35  
Cr2      Cr     0.85421      0.625        0.625        1.35  
F1       F      0.83237      0.125        0.125       -0.547 
F1       F      0.33237      0.625        0.125       -0.547 
F1       F      0.33237      0.125        0.625       -0.547 
F1       F      0.83237      0.625        0.625       -0.547 
Cr2      Cr     0.39579      0.125        0.125        1.35  
Cr2      Cr     0.895789     0.625        0.125        1.35  
Cr2      Cr     0.895789     0.125        0.625        1.35  
Cr2      Cr     0.39579      0.625        0.625        1.35  
F1       F      0.41763      0.125        0.125       -0.547 
F1       F      0.91763      0.625        0.125       -0.547 
F1       F      0.91763      0.125        0.625       -0.547 
F1       F      0.41763      0.625        0.625       -0.547 
Cr1      Cr     0.60421      0.375        0.375        1.619 
Cr1      Cr     0.10421      0.875        0.375        1.619 
Cr1      Cr     0.10421      0.375        0.875        1.619 
Cr1      Cr     0.60421      0.875        0.875        1.619 
Cr1      Cr     0.14579      0.375        0.375        1.619 
Cr1      Cr     0.64579      0.875        0.375        1.619 
Cr1      Cr     0.64579      0.375        0.875        1.619 
Cr1      Cr     0.14579      0.875        0.875        1.619 
Cr1      Cr     0.375        0.375        0.14579      1.619 
Cr1      Cr     0.875        0.875        0.14579      1.619 
Cr1      Cr     0.875        0.375        0.64579      1.619 
Cr1      Cr     0.375        0.875        0.64579      1.619 
Cr2      Cr     0.875        0.375        0.10421      1.35  
Cr2      Cr     0.375        0.875        0.10421      1.35  
Cr2      Cr     0.375        0.375        0.60421      1.35  
Cr2      Cr     0.875        0.875        0.60421      1.35  
F1       F      0.875        0.375        0.0823696   -0.547 
F1       F      0.375        0.875        0.0823696   -0.547 
F1       F      0.375        0.375        0.58237     -0.547 
F1       F      0.875        0.875        0.58237     -0.547 
Cr1      Cr     0.875        0.10421      0.375        1.619 
Cr1      Cr     0.375        0.60421      0.375        1.619 
Cr1      Cr     0.375        0.10421      0.875        1.619 
Cr1      Cr     0.875        0.60421      0.875        1.619 
Cr2      Cr     0.375        0.14579      0.375        1.35  
Cr2      Cr     0.875        0.64579      0.375        1.35  
Cr2      Cr     0.875        0.14579      0.875        1.35  
Cr2      Cr     0.375        0.64579      0.875        1.35  
F1       F      0.375        0.16763      0.375       -0.547 
F1       F      0.875        0.66763      0.375       -0.547 
F1       F      0.875        0.16763      0.875       -0.547 
F1       F      0.375        0.66763      0.875       -0.547 
Cr1      Cr     0.63618      0.36129      0.38871      1.619 
Cr1      Cr     0.13618      0.86129      0.38871      1.619 
Cr1      Cr     0.13618      0.36129      0.88871      1.619 
Cr1      Cr     0.63618      0.86129      0.88871      1.619 
Cr1      Cr     0.11382      0.38871      0.38871      1.619 
Cr1      Cr     0.61382      0.88871      0.38871      1.619 
Cr1      Cr     0.61382      0.38871      0.88871      1.619 
Cr1      Cr     0.11382      0.88871      0.88871      1.619 
Cr2      Cr     0.11382      0.36129      0.36129      1.35  
Cr2      Cr     0.61382      0.86129      0.36129      1.35  
Cr2      Cr     0.61382      0.36129      0.86129      1.35  
Cr2      Cr     0.11382      0.86129      0.86129      1.35  
F1       F      0.0963103    0.35171      0.35171     -0.547 
F1       F      0.59631      0.85171      0.35171     -0.547 
F1       F      0.59631      0.35171      0.85171     -0.547 
F1       F      0.0963103    0.85171      0.85171     -0.547 
Cr2      Cr     0.63618      0.38871      0.36129      1.35  
Cr2      Cr     0.13618      0.88871      0.36129      1.35  
Cr2      Cr     0.13618      0.38871      0.86129      1.35  
Cr2      Cr     0.63618      0.88871      0.86129      1.35  
F1       F      0.65369      0.39829      0.35171     -0.547 
F1       F      0.15369      0.89829      0.35171     -0.547 
F1       F      0.15369      0.39829      0.85171     -0.547 
F1       F      0.65369      0.89829      0.85171     -0.547 
Cr1      Cr     0.88871      0.13618      0.36129      1.619 
Cr1      Cr     0.38871      0.63618      0.36129      1.619 
Cr1      Cr     0.38871      0.13618      0.86129      1.619 
Cr1      Cr     0.88871      0.63618      0.86129      1.619 
Cr1      Cr     0.38871      0.11382      0.38871      1.619 
Cr1      Cr     0.88871      0.61382      0.38871      1.619 
Cr1      Cr     0.88871      0.11382      0.88871      1.619 
Cr1      Cr     0.38871      0.61382      0.88871      1.619 
Cr1      Cr     0.36129      0.11382      0.36129      1.619 
Cr1      Cr     0.86129      0.61382      0.36129      1.619 
Cr1      Cr     0.86129      0.11382      0.86129      1.619 
Cr1      Cr     0.36129      0.61382      0.86129      1.619 
Cr2      Cr     0.86129      0.13618      0.38871      1.35  
Cr2      Cr     0.36129      0.63618      0.38871      1.35  
Cr2      Cr     0.36129      0.13618      0.88871      1.35  
Cr2      Cr     0.86129      0.63618      0.88871      1.35  
F1       F      0.85171      0.15369      0.39829     -0.547 
F1       F      0.35171      0.65369      0.39829     -0.547 
F1       F      0.35171      0.15369      0.89829     -0.547 
F1       F      0.85171      0.65369      0.89829     -0.547 
Cr1      Cr     0.86129      0.38871      0.13618      1.619 
Cr1      Cr     0.36129      0.88871      0.13618      1.619 
Cr1      Cr     0.36129      0.38871      0.63618      1.619 
Cr1      Cr     0.86129      0.88871      0.63618      1.619 
Cr2      Cr     0.38871      0.38871      0.11382      1.35  
Cr2      Cr     0.88871      0.88871      0.11382      1.35  
Cr2      Cr     0.88871      0.38871      0.61382      1.35  
Cr2      Cr     0.38871      0.88871      0.61382      1.35  
F1       F      0.39829      0.39829      0.0963103   -0.547 
F1       F      0.89829      0.89829      0.0963103   -0.547 
F1       F      0.89829      0.39829      0.59631     -0.547 
F1       F      0.39829      0.89829      0.59631     -0.547 
Cr1      Cr     0.36129      0.36129      0.11382      1.619 
Cr1      Cr     0.86129      0.86129      0.11382      1.619 
Cr1      Cr     0.86129      0.36129      0.61382      1.619 
Cr1      Cr     0.36129      0.86129      0.61382      1.619 
Cr1      Cr     0.88871      0.36129      0.13618      1.619 
Cr1      Cr     0.38871      0.86129      0.13618      1.619 
Cr1      Cr     0.38871      0.36129      0.63618      1.619 
Cr1      Cr     0.88871      0.86129      0.63618      1.619 
Cr1      Cr     0.61129      0.38618      0.11129      1.619 
Cr1      Cr     0.11129      0.88618      0.11129      1.619 
Cr1      Cr     0.11129      0.38618      0.61129      1.619 
Cr1      Cr     0.61129      0.88618      0.61129      1.619 
Cr1      Cr     0.13871      0.36382      0.11129      1.619 
Cr1      Cr     0.63871      0.86382      0.11129      1.619 
Cr1      Cr     0.63871      0.36382      0.61129      1.619 
Cr1      Cr     0.13871      0.86382      0.61129      1.619 
Cr2      Cr     0.11129      0.36382      0.13871      1.35  
Cr2      Cr     0.61129      0.86382      0.13871      1.35  
Cr2      Cr     0.61129      0.36382      0.63871      1.35  
Cr2      Cr     0.11129      0.86382      0.63871      1.35  
F1       F      0.10171      0.34631      0.14829     -0.547 
F1       F      0.60171      0.84631      0.14829     -0.547 
F1       F      0.60171      0.34631      0.64829     -0.547 
F1       F      0.10171      0.84631      0.64829     -0.547 
Cr2      Cr     0.63871      0.38618      0.13871      1.35  
Cr2      Cr     0.13871      0.88618      0.13871      1.35  
Cr2      Cr     0.13871      0.38618      0.63871      1.35  
Cr2      Cr     0.63871      0.88618      0.63871      1.35  
F1       F      0.64829      0.40369      0.14829     -0.547 
F1       F      0.14829      0.90369      0.14829     -0.547 
F1       F      0.14829      0.40369      0.64829     -0.547 
F1       F      0.64829      0.90369      0.64829     -0.547 
Cr1      Cr     0.88618      0.13871      0.13871      1.619 
Cr1      Cr     0.38618      0.63871      0.13871      1.619 
Cr1      Cr     0.38618      0.13871      0.63871      1.619 
Cr1      Cr     0.88618      0.63871      0.63871      1.619 
Cr1      Cr     0.36382      0.13871      0.11129      1.619 
Cr1      Cr     0.86382      0.63871      0.11129      1.619 
Cr1      Cr     0.86382      0.13871      0.61129      1.619 
Cr1      Cr     0.36382      0.63871      0.61129      1.619 
Cr1      Cr     0.36382      0.11129      0.13871      1.619 
Cr1      Cr     0.86382      0.61129      0.13871      1.619 
Cr1      Cr     0.86382      0.11129      0.63871      1.619 
Cr1      Cr     0.36382      0.61129      0.63871      1.619 
Cr1      Cr     0.88618      0.11129      0.11129      1.619 
Cr1      Cr     0.38618      0.61129      0.11129      1.619 
Cr1      Cr     0.38618      0.11129      0.61129      1.619 
Cr1      Cr     0.88618      0.61129      0.61129      1.619 
Cr1      Cr     0.13871      0.11129      0.36382      1.619 
Cr1      Cr     0.63871      0.61129      0.36382      1.619 
Cr1      Cr     0.63871      0.11129      0.86382      1.619 
Cr1      Cr     0.13871      0.61129      0.86382      1.619 
Cr2      Cr     0.63871      0.13871      0.38618      1.35  
Cr2      Cr     0.13871      0.63871      0.38618      1.35  
Cr2      Cr     0.13871      0.13871      0.88618      1.35  
Cr2      Cr     0.63871      0.63871      0.88618      1.35  
F1       F      0.64829      0.14829      0.40369     -0.547 
F1       F      0.14829      0.64829      0.40369     -0.547 
F1       F      0.14829      0.14829      0.90369     -0.547 
F1       F      0.64829      0.64829      0.90369     -0.547 
Cr1      Cr     0.61129      0.11129      0.38618      1.619 
Cr1      Cr     0.11129      0.61129      0.38618      1.619 
Cr1      Cr     0.11129      0.11129      0.88618      1.619 
Cr1      Cr     0.61129      0.61129      0.88618      1.619 
Cr2      Cr     0.11129      0.13871      0.36382      1.35  
Cr2      Cr     0.61129      0.63871      0.36382      1.35  
Cr2      Cr     0.61129      0.13871      0.86382      1.35  
Cr2      Cr     0.11129      0.63871      0.86382      1.35  
F1       F      0.10171      0.14829      0.34631     -0.547 
F1       F      0.60171      0.64829      0.34631     -0.547 
F1       F      0.60171      0.14829      0.84631     -0.547 
F1       F      0.10171      0.64829      0.84631     -0.547 
Cr2      Cr     0.21632      0.21632      0.29932      1.35  
Cr2      Cr     0.71632      0.71632      0.29932      1.35  
Cr2      Cr     0.71632      0.21632      0.79932      1.35  
Cr2      Cr     0.21632      0.71632      0.79932      1.35  
O1       O      0.200041     0.200041     0.29603     -0.853 
O1       O      0.700039     0.700039     0.29603     -0.853 
O1       O      0.700039     0.200041     0.79603     -0.853 
O1       O      0.200041     0.700039     0.79603     -0.853 
C1       C      0.18414      0.18414      0.26664      0.496 
C1       C      0.68414      0.68414      0.26664      0.496 
C1       C      0.68414      0.18414      0.76664      0.496 
C1       C      0.18414      0.68414      0.76664      0.496 
C2       C      0.17855      0.17855      0.25298     -0.07  
C2       C      0.67855      0.67855      0.25298     -0.07  
C2       C      0.67855      0.17855      0.75298     -0.07  
C2       C      0.17855      0.67855      0.75298     -0.07  
C1       C      0.17083      0.17083      0.20626      0.496 
C1       C      0.67083      0.67083      0.20626      0.496 
C1       C      0.67083      0.17083      0.70626      0.496 
C1       C      0.17083      0.67083      0.70626      0.496 
C2       C      0.17268      0.17268      0.222149    -0.07  
C2       C      0.67268      0.67268      0.222149    -0.07  
C2       C      0.67268      0.17268      0.722149    -0.07  
C2       C      0.17268      0.67268      0.722149    -0.07  
Cr1      Cr     0.0336799    0.0336799    0.29932      1.619 
Cr1      Cr     0.53368      0.53368      0.29932      1.619 
Cr1      Cr     0.53368      0.0336799    0.79932      1.619 
Cr1      Cr     0.0336799    0.53368      0.79932      1.619 
O1       O      0.0499601    0.0499601    0.29603     -0.853 
O1       O      0.54996      0.54996      0.29603     -0.853 
O1       O      0.54996      0.0499601    0.79603     -0.853 
O1       O      0.0499601    0.54996      0.79603     -0.853 
C1       C      0.0658599    0.0658599    0.26664      0.496 
C1       C      0.56586      0.56586      0.26664      0.496 
C1       C      0.56586      0.0658599    0.76664      0.496 
C1       C      0.0658599    0.56586      0.76664      0.496 
C2       C      0.0714501    0.0714501    0.25298     -0.07  
C2       C      0.57145      0.57145      0.25298     -0.07  
C2       C      0.57145      0.0714501    0.75298     -0.07  
C2       C      0.0714501    0.57145      0.75298     -0.07  
C1       C      0.0791705    0.0791705    0.20626      0.496 
C1       C      0.57917      0.57917      0.20626      0.496 
C1       C      0.57917      0.0791705    0.70626      0.496 
C1       C      0.0791705    0.57917      0.70626      0.496 
C2       C      0.0773206    0.0773206    0.222149    -0.07  
C2       C      0.577319     0.577319     0.222149    -0.07  
C2       C      0.577319     0.0773206    0.722149    -0.07  
C2       C      0.0773206    0.577319     0.722149    -0.07  
Cr1      Cr     0.53368      0.21632      0.45068      1.619 
Cr1      Cr     0.0336799    0.71632      0.45068      1.619 
Cr1      Cr     0.0336799    0.21632      0.95068      1.619 
Cr1      Cr     0.53368      0.71632      0.95068      1.619 
O1       O      0.54996      0.200041     0.45397     -0.853 
O1       O      0.0499601    0.700039     0.45397     -0.853 
O1       O      0.0499601    0.200041     0.95397     -0.853 
O1       O      0.54996      0.700039     0.95397     -0.853 
C1       C      0.56586      0.18414      0.48336      0.496 
C1       C      0.0658599    0.68414      0.48336      0.496 
C1       C      0.0658599    0.18414      0.98336      0.496 
C1       C      0.56586      0.68414      0.98336      0.496 
C2       C      0.57145      0.17855      0.49702     -0.07  
C2       C      0.0714501    0.67855      0.49702     -0.07  
C2       C      0.0714501    0.17855      0.99702     -0.07  
C2       C      0.57145      0.67855      0.99702     -0.07  
C1       C      0.0791705    0.17083      0.0437397    0.496 
C1       C      0.57917      0.67083      0.0437397    0.496 
C1       C      0.57917      0.17083      0.54374      0.496 
C1       C      0.0791705    0.67083      0.54374      0.496 
C2       C      0.0773206    0.17268      0.02785     -0.07  
C2       C      0.577319     0.67268      0.02785     -0.07  
C2       C      0.577319     0.17268      0.52785     -0.07  
C2       C      0.0773206    0.67268      0.52785     -0.07  
Cr1      Cr     0.71632      0.0336799    0.45068      1.619 
Cr1      Cr     0.21632      0.53368      0.45068      1.619 
Cr1      Cr     0.21632      0.0336799    0.95068      1.619 
Cr1      Cr     0.71632      0.53368      0.95068      1.619 
O1       O      0.700039     0.0499601    0.45397     -0.853 
O1       O      0.200041     0.54996      0.45397     -0.853 
O1       O      0.200041     0.0499601    0.95397     -0.853 
O1       O      0.700039     0.54996      0.95397     -0.853 
C1       C      0.68414      0.0658599    0.48336      0.496 
C1       C      0.18414      0.56586      0.48336      0.496 
C1       C      0.18414      0.0658599    0.98336      0.496 
C1       C      0.68414      0.56586      0.98336      0.496 
C2       C      0.67855      0.0714501    0.49702     -0.07  
C2       C      0.17855      0.57145      0.49702     -0.07  
C2       C      0.17855      0.0714501    0.99702     -0.07  
C2       C      0.67855      0.57145      0.99702     -0.07  
C1       C      0.17083      0.0791705    0.0437397    0.496 
C1       C      0.67083      0.57917      0.0437397    0.496 
C1       C      0.67083      0.0791705    0.54374      0.496 
C1       C      0.17083      0.57917      0.54374      0.496 
C2       C      0.17268      0.0773206    0.02785     -0.07  
C2       C      0.67268      0.577319     0.02785     -0.07  
C2       C      0.67268      0.0773206    0.52785     -0.07  
C2       C      0.17268      0.577319     0.52785     -0.07  
Cr1      Cr     0.29932      0.21632      0.21632      1.619 
Cr1      Cr     0.79932      0.71632      0.21632      1.619 
Cr1      Cr     0.79932      0.21632      0.71632      1.619 
Cr1      Cr     0.29932      0.71632      0.71632      1.619 
O1       O      0.29603      0.200041     0.200041    -0.853 
O1       O      0.79603      0.700039     0.200041    -0.853 
O1       O      0.79603      0.200041     0.700039    -0.853 
O1       O      0.29603      0.700039     0.700039    -0.853 
C1       C      0.26664      0.18414      0.18414      0.496 
C1       C      0.76664      0.68414      0.18414      0.496 
C1       C      0.76664      0.18414      0.68414      0.496 
C1       C      0.26664      0.68414      0.68414      0.496 
C2       C      0.25298      0.17855      0.17855     -0.07  
C2       C      0.75298      0.67855      0.17855     -0.07  
C2       C      0.75298      0.17855      0.67855     -0.07  
C2       C      0.25298      0.67855      0.67855     -0.07  
C1       C      0.20626      0.17083      0.17083      0.496 
C1       C      0.70626      0.67083      0.17083      0.496 
C1       C      0.70626      0.17083      0.67083      0.496 
C1       C      0.20626      0.67083      0.67083      0.496 
C2       C      0.222149     0.17268      0.17268     -0.07  
C2       C      0.722149     0.67268      0.17268     -0.07  
C2       C      0.722149     0.17268      0.67268     -0.07  
C2       C      0.222149     0.67268      0.67268     -0.07  
Cr1      Cr     0.29932      0.0336799    0.0336799    1.619 
Cr1      Cr     0.79932      0.53368      0.0336799    1.619 
Cr1      Cr     0.79932      0.0336799    0.53368      1.619 
Cr1      Cr     0.29932      0.53368      0.53368      1.619 
O1       O      0.29603      0.0499601    0.0499601   -0.853 
O1       O      0.79603      0.54996      0.0499601   -0.853 
O1       O      0.79603      0.0499601    0.54996     -0.853 
O1       O      0.29603      0.54996      0.54996     -0.853 
C1       C      0.26664      0.0658599    0.0658599    0.496 
C1       C      0.76664      0.56586      0.0658599    0.496 
C1       C      0.76664      0.0658599    0.56586      0.496 
C1       C      0.26664      0.56586      0.56586      0.496 
C2       C      0.25298      0.0714501    0.0714501   -0.07  
C2       C      0.75298      0.57145      0.0714501   -0.07  
C2       C      0.75298      0.0714501    0.57145     -0.07  
C2       C      0.25298      0.57145      0.57145     -0.07  
C1       C      0.20626      0.0791705    0.0791705    0.496 
C1       C      0.70626      0.57917      0.0791705    0.496 
C1       C      0.70626      0.0791705    0.57917      0.496 
C1       C      0.20626      0.57917      0.57917      0.496 
C2       C      0.222149     0.0773206    0.0773206   -0.07  
C2       C      0.722149     0.577319     0.0773206   -0.07  
C2       C      0.722149     0.0773206    0.577319    -0.07  
C2       C      0.222149     0.577319     0.577319    -0.07  
Cr2      Cr     0.95068      0.0336799    0.21632      1.35  
Cr2      Cr     0.45068      0.53368      0.21632      1.35  
Cr2      Cr     0.45068      0.0336799    0.71632      1.35  
Cr2      Cr     0.95068      0.53368      0.71632      1.35  
O1       O      0.95397      0.0499601    0.200041    -0.853 
O1       O      0.45397      0.54996      0.200041    -0.853 
O1       O      0.45397      0.0499601    0.700039    -0.853 
O1       O      0.95397      0.54996      0.700039    -0.853 
C1       C      0.98336      0.0658599    0.18414      0.496 
C1       C      0.48336      0.56586      0.18414      0.496 
C1       C      0.48336      0.0658599    0.68414      0.496 
C1       C      0.98336      0.56586      0.68414      0.496 
C2       C      0.99702      0.0714501    0.17855     -0.07  
C2       C      0.49702      0.57145      0.17855     -0.07  
C2       C      0.49702      0.0714501    0.67855     -0.07  
C2       C      0.99702      0.57145      0.67855     -0.07  
C1       C      0.0437397    0.0791705    0.17083      0.496 
C1       C      0.54374      0.57917      0.17083      0.496 
C1       C      0.54374      0.0791705    0.67083      0.496 
C1       C      0.0437397    0.57917      0.67083      0.496 
C2       C      0.02785      0.0773206    0.17268     -0.07  
C2       C      0.52785      0.577319     0.17268     -0.07  
C2       C      0.52785      0.0773206    0.67268     -0.07  
C2       C      0.02785      0.577319     0.67268     -0.07  
Cr2      Cr     0.95068      0.21632      0.0336799    1.35  
Cr2      Cr     0.45068      0.71632      0.0336799    1.35  
Cr2      Cr     0.45068      0.21632      0.53368      1.35  
Cr2      Cr     0.95068      0.71632      0.53368      1.35  
O1       O      0.95397      0.200041     0.0499601   -0.853 
O1       O      0.45397      0.700039     0.0499601   -0.853 
O1       O      0.45397      0.200041     0.54996     -0.853 
O1       O      0.95397      0.700039     0.54996     -0.853 
C1       C      0.98336      0.18414      0.0658599    0.496 
C1       C      0.48336      0.68414      0.0658599    0.496 
C1       C      0.48336      0.18414      0.56586      0.496 
C1       C      0.98336      0.68414      0.56586      0.496 
C2       C      0.99702      0.17855      0.0714501   -0.07  
C2       C      0.49702      0.67855      0.0714501   -0.07  
C2       C      0.49702      0.17855      0.57145     -0.07  
C2       C      0.99702      0.67855      0.57145     -0.07  
C1       C      0.0437397    0.17083      0.0791705    0.496 
C1       C      0.54374      0.67083      0.0791705    0.496 
C1       C      0.54374      0.17083      0.57917      0.496 
C1       C      0.0437397    0.67083      0.57917      0.496 
C2       C      0.02785      0.17268      0.0773206   -0.07  
C2       C      0.52785      0.67268      0.0773206   -0.07  
C2       C      0.52785      0.17268      0.577319    -0.07  
C2       C      0.02785      0.67268      0.577319    -0.07  
Cr1      Cr     0.21632      0.29932      0.21632      1.619 
Cr1      Cr     0.71632      0.79932      0.21632      1.619 
Cr1      Cr     0.71632      0.29932      0.71632      1.619 
Cr1      Cr     0.21632      0.79932      0.71632      1.619 
O1       O      0.200041     0.29603      0.200041    -0.853 
O1       O      0.700039     0.79603      0.200041    -0.853 
O1       O      0.700039     0.29603      0.700039    -0.853 
O1       O      0.200041     0.79603      0.700039    -0.853 
C1       C      0.18414      0.26664      0.18414      0.496 
C1       C      0.68414      0.76664      0.18414      0.496 
C1       C      0.68414      0.26664      0.68414      0.496 
C1       C      0.18414      0.76664      0.68414      0.496 
C2       C      0.17855      0.25298      0.17855     -0.07  
C2       C      0.67855      0.75298      0.17855     -0.07  
C2       C      0.67855      0.25298      0.67855     -0.07  
C2       C      0.17855      0.75298      0.67855     -0.07  
C1       C      0.17083      0.20626      0.17083      0.496 
C1       C      0.67083      0.70626      0.17083      0.496 
C1       C      0.67083      0.20626      0.67083      0.496 
C1       C      0.17083      0.70626      0.67083      0.496 
C2       C      0.17268      0.222149     0.17268     -0.07  
C2       C      0.67268      0.722149     0.17268     -0.07  
C2       C      0.67268      0.222149     0.67268     -0.07  
C2       C      0.17268      0.722149     0.67268     -0.07  
Cr1      Cr     0.0336799    0.29932      0.0336799    1.619 
Cr1      Cr     0.53368      0.79932      0.0336799    1.619 
Cr1      Cr     0.53368      0.29932      0.53368      1.619 
Cr1      Cr     0.0336799    0.79932      0.53368      1.619 
O1       O      0.0499601    0.29603      0.0499601   -0.853 
O1       O      0.54996      0.79603      0.0499601   -0.853 
O1       O      0.54996      0.29603      0.54996     -0.853 
O1       O      0.0499601    0.79603      0.54996     -0.853 
C1       C      0.0658599    0.26664      0.0658599    0.496 
C1       C      0.56586      0.76664      0.0658599    0.496 
C1       C      0.56586      0.26664      0.56586      0.496 
C1       C      0.0658599    0.76664      0.56586      0.496 
C2       C      0.0714501    0.25298      0.0714501   -0.07  
C2       C      0.57145      0.75298      0.0714501   -0.07  
C2       C      0.57145      0.25298      0.57145     -0.07  
C2       C      0.0714501    0.75298      0.57145     -0.07  
C1       C      0.0791705    0.20626      0.0791705    0.496 
C1       C      0.57917      0.70626      0.0791705    0.496 
C1       C      0.57917      0.20626      0.57917      0.496 
C1       C      0.0791705    0.70626      0.57917      0.496 
C2       C      0.0773206    0.222149     0.0773206   -0.07  
C2       C      0.577319     0.722149     0.0773206   -0.07  
C2       C      0.577319     0.222149     0.577319    -0.07  
C2       C      0.0773206    0.722149     0.577319    -0.07  
Cr1      Cr     0.71632      0.45068      0.0336799    1.619 
Cr1      Cr     0.21632      0.95068      0.0336799    1.619 
Cr1      Cr     0.21632      0.45068      0.53368      1.619 
Cr1      Cr     0.71632      0.95068      0.53368      1.619 
O1       O      0.700039     0.45397      0.0499601   -0.853 
O1       O      0.200041     0.95397      0.0499601   -0.853 
O1       O      0.200041     0.45397      0.54996     -0.853 
O1       O      0.700039     0.95397      0.54996     -0.853 
C1       C      0.68414      0.48336      0.0658599    0.496 
C1       C      0.18414      0.98336      0.0658599    0.496 
C1       C      0.18414      0.48336      0.56586      0.496 
C1       C      0.68414      0.98336      0.56586      0.496 
C2       C      0.67855      0.49702      0.0714501   -0.07  
C2       C      0.17855      0.99702      0.0714501   -0.07  
C2       C      0.17855      0.49702      0.57145     -0.07  
C2       C      0.67855      0.99702      0.57145     -0.07  
C1       C      0.17083      0.0437397    0.0791705    0.496 
C1       C      0.67083      0.54374      0.0791705    0.496 
C1       C      0.67083      0.0437397    0.57917      0.496 
C1       C      0.17083      0.54374      0.57917      0.496 
C2       C      0.17268      0.02785      0.0773206   -0.07  
C2       C      0.67268      0.52785      0.0773206   -0.07  
C2       C      0.67268      0.02785      0.577319    -0.07  
C2       C      0.17268      0.52785      0.577319    -0.07  
Cr1      Cr     0.53368      0.45068      0.21632      1.619 
Cr1      Cr     0.0336799    0.95068      0.21632      1.619 
Cr1      Cr     0.0336799    0.45068      0.71632      1.619 
Cr1      Cr     0.53368      0.95068      0.71632      1.619 
O1       O      0.54996      0.45397      0.200041    -0.853 
O1       O      0.0499601    0.95397      0.200041    -0.853 
O1       O      0.0499601    0.45397      0.700039    -0.853 
O1       O      0.54996      0.95397      0.700039    -0.853 
C1       C      0.56586      0.48336      0.18414      0.496 
C1       C      0.0658599    0.98336      0.18414      0.496 
C1       C      0.0658599    0.48336      0.68414      0.496 
C1       C      0.56586      0.98336      0.68414      0.496 
C2       C      0.57145      0.49702      0.17855     -0.07  
C2       C      0.0714501    0.99702      0.17855     -0.07  
C2       C      0.0714501    0.49702      0.67855     -0.07  
C2       C      0.57145      0.99702      0.67855     -0.07  
C1       C      0.0791705    0.0437397    0.17083      0.496 
C1       C      0.57917      0.54374      0.17083      0.496 
C1       C      0.57917      0.0437397    0.67083      0.496 
C1       C      0.0791705    0.54374      0.67083      0.496 
C2       C      0.0773206    0.02785      0.17268     -0.07  
C2       C      0.577319     0.52785      0.17268     -0.07  
C2       C      0.577319     0.02785      0.67268     -0.07  
C2       C      0.0773206    0.52785      0.67268     -0.07  
Cr1      Cr     0.96632      0.46632      0.20068      1.619 
Cr1      Cr     0.46632      0.96632      0.20068      1.619 
Cr1      Cr     0.46632      0.46632      0.70068      1.619 
Cr1      Cr     0.96632      0.96632      0.70068      1.619 
O1       O      0.95004      0.45004      0.20397     -0.853 
O1       O      0.45004      0.95004      0.20397     -0.853 
O1       O      0.45004      0.45004      0.70397     -0.853 
O1       O      0.95004      0.95004      0.70397     -0.853 
C1       C      0.93414      0.43414      0.23336      0.496 
C1       C      0.43414      0.93414      0.23336      0.496 
C1       C      0.43414      0.43414      0.73336      0.496 
C1       C      0.93414      0.93414      0.73336      0.496 
C2       C      0.92855      0.42855      0.24702     -0.07  
C2       C      0.42855      0.92855      0.24702     -0.07  
C2       C      0.42855      0.42855      0.74702     -0.07  
C2       C      0.92855      0.92855      0.74702     -0.07  
C1       C      0.92083      0.42083      0.29374      0.496 
C1       C      0.42083      0.92083      0.29374      0.496 
C1       C      0.42083      0.42083      0.79374      0.496 
C1       C      0.92083      0.92083      0.79374      0.496 
C2       C      0.922679     0.422679     0.277849    -0.07  
C2       C      0.422679     0.922679     0.277849    -0.07  
C2       C      0.422679     0.422679     0.777849    -0.07  
C2       C      0.922679     0.922679     0.777849    -0.07  
Cr2      Cr     0.78368      0.28368      0.20068      1.35  
Cr2      Cr     0.28368      0.78368      0.20068      1.35  
Cr2      Cr     0.28368      0.28368      0.70068      1.35  
Cr2      Cr     0.78368      0.78368      0.70068      1.35  
O1       O      0.799959     0.299959     0.20397     -0.853 
O1       O      0.299959     0.799959     0.20397     -0.853 
O1       O      0.299959     0.299959     0.70397     -0.853 
O1       O      0.799959     0.799959     0.70397     -0.853 
C1       C      0.81586      0.31586      0.23336      0.496 
C1       C      0.31586      0.81586      0.23336      0.496 
C1       C      0.31586      0.31586      0.73336      0.496 
C1       C      0.81586      0.81586      0.73336      0.496 
C2       C      0.82145      0.32145      0.24702     -0.07  
C2       C      0.32145      0.82145      0.24702     -0.07  
C2       C      0.32145      0.32145      0.74702     -0.07  
C2       C      0.82145      0.82145      0.74702     -0.07  
C1       C      0.82917      0.32917      0.29374      0.496 
C1       C      0.32917      0.82917      0.29374      0.496 
C1       C      0.32917      0.32917      0.79374      0.496 
C1       C      0.82917      0.82917      0.79374      0.496 
C2       C      0.82732      0.32732      0.277849    -0.07  
C2       C      0.32732      0.82732      0.277849    -0.07  
C2       C      0.32732      0.32732      0.777849    -0.07  
C2       C      0.82732      0.82732      0.777849    -0.07  
Cr2      Cr     0.46632      0.28368      0.0493198    1.35  
Cr2      Cr     0.96632      0.78368      0.0493198    1.35  
Cr2      Cr     0.96632      0.28368      0.54932      1.35  
Cr2      Cr     0.46632      0.78368      0.54932      1.35  
O1       O      0.45004      0.299959     0.0460295   -0.853 
O1       O      0.95004      0.799959     0.0460295   -0.853 
O1       O      0.95004      0.299959     0.54603     -0.853 
O1       O      0.45004      0.799959     0.54603     -0.853 
C1       C      0.43414      0.31586      0.0166402    0.496 
C1       C      0.93414      0.81586      0.0166402    0.496 
C1       C      0.93414      0.31586      0.51664      0.496 
C1       C      0.43414      0.81586      0.51664      0.496 
C2       C      0.42855      0.32145      0.00297967  -0.07  
C2       C      0.92855      0.82145      0.00297967  -0.07  
C2       C      0.92855      0.32145      0.50298     -0.07  
C2       C      0.42855      0.82145      0.50298     -0.07  
C1       C      0.92083      0.32917      0.45626      0.496 
C1       C      0.42083      0.82917      0.45626      0.496 
C1       C      0.42083      0.32917      0.95626      0.496 
C1       C      0.92083      0.82917      0.95626      0.496 
C2       C      0.922679     0.32732      0.47215     -0.07  
C2       C      0.422679     0.82732      0.47215     -0.07  
C2       C      0.422679     0.32732      0.97215     -0.07  
C2       C      0.922679     0.82732      0.97215     -0.07  
Cr1      Cr     0.28368      0.46632      0.0493198    1.619 
Cr1      Cr     0.78368      0.96632      0.0493198    1.619 
Cr1      Cr     0.78368      0.46632      0.54932      1.619 
Cr1      Cr     0.28368      0.96632      0.54932      1.619 
O1       O      0.299959     0.45004      0.0460295   -0.853 
O1       O      0.799959     0.95004      0.0460295   -0.853 
O1       O      0.799959     0.45004      0.54603     -0.853 
O1       O      0.299959     0.95004      0.54603     -0.853 
C1       C      0.31586      0.43414      0.0166402    0.496 
C1       C      0.81586      0.93414      0.0166402    0.496 
C1       C      0.81586      0.43414      0.51664      0.496 
C1       C      0.31586      0.93414      0.51664      0.496 
C2       C      0.32145      0.42855      0.00297967  -0.07  
C2       C      0.82145      0.92855      0.00297967  -0.07  
C2       C      0.82145      0.42855      0.50298     -0.07  
C2       C      0.32145      0.92855      0.50298     -0.07  
C1       C      0.82917      0.42083      0.45626      0.496 
C1       C      0.32917      0.92083      0.45626      0.496 
C1       C      0.32917      0.42083      0.95626      0.496 
C1       C      0.82917      0.92083      0.95626      0.496 
C2       C      0.82732      0.422679     0.47215     -0.07  
C2       C      0.32732      0.922679     0.47215     -0.07  
C2       C      0.32732      0.422679     0.97215     -0.07  
C2       C      0.82732      0.922679     0.97215     -0.07  
Cr2      Cr     0.46632      0.0493198    0.28368      1.35  
Cr2      Cr     0.96632      0.54932      0.28368      1.35  
Cr2      Cr     0.96632      0.0493198    0.78368      1.35  
Cr2      Cr     0.46632      0.54932      0.78368      1.35  
O1       O      0.45004      0.0460295    0.299959    -0.853 
O1       O      0.95004      0.54603      0.299959    -0.853 
O1       O      0.95004      0.0460295    0.799959    -0.853 
O1       O      0.45004      0.54603      0.799959    -0.853 
C1       C      0.43414      0.0166402    0.31586      0.496 
C1       C      0.93414      0.51664      0.31586      0.496 
C1       C      0.93414      0.0166402    0.81586      0.496 
C1       C      0.43414      0.51664      0.81586      0.496 
C2       C      0.42855      0.00297967   0.32145     -0.07  
C2       C      0.92855      0.50298      0.32145     -0.07  
C2       C      0.92855      0.00297967   0.82145     -0.07  
C2       C      0.42855      0.50298      0.82145     -0.07  
C1       C      0.92083      0.45626      0.32917      0.496 
C1       C      0.42083      0.95626      0.32917      0.496 
C1       C      0.42083      0.45626      0.82917      0.496 
C1       C      0.92083      0.95626      0.82917      0.496 
C2       C      0.922679     0.47215      0.32732     -0.07  
C2       C      0.422679     0.97215      0.32732     -0.07  
C2       C      0.422679     0.47215      0.82732     -0.07  
C2       C      0.922679     0.97215      0.82732     -0.07  
Cr2      Cr     0.28368      0.0493198    0.46632      1.35  
Cr2      Cr     0.78368      0.54932      0.46632      1.35  
Cr2      Cr     0.78368      0.0493198    0.96632      1.35  
Cr2      Cr     0.28368      0.54932      0.96632      1.35  
O1       O      0.299959     0.0460295    0.45004     -0.853 
O1       O      0.799959     0.54603      0.45004     -0.853 
O1       O      0.799959     0.0460295    0.95004     -0.853 
O1       O      0.299959     0.54603      0.95004     -0.853 
C1       C      0.31586      0.0166402    0.43414      0.496 
C1       C      0.81586      0.51664      0.43414      0.496 
C1       C      0.81586      0.0166402    0.93414      0.496 
C1       C      0.31586      0.51664      0.93414      0.496 
C2       C      0.32145      0.00297967   0.42855     -0.07  
C2       C      0.82145      0.50298      0.42855     -0.07  
C2       C      0.82145      0.00297967   0.92855     -0.07  
C2       C      0.32145      0.50298      0.92855     -0.07  
C1       C      0.82917      0.45626      0.42083      0.496 
C1       C      0.32917      0.95626      0.42083      0.496 
C1       C      0.32917      0.45626      0.92083      0.496 
C1       C      0.82917      0.95626      0.92083      0.496 
C2       C      0.82732      0.47215      0.422679    -0.07  
C2       C      0.32732      0.97215      0.422679    -0.07  
C2       C      0.32732      0.47215      0.922679    -0.07  
C2       C      0.82732      0.97215      0.922679    -0.07  
Cr1      Cr     0.78368      0.20068      0.28368      1.619 
Cr1      Cr     0.28368      0.70068      0.28368      1.619 
Cr1      Cr     0.28368      0.20068      0.78368      1.619 
Cr1      Cr     0.78368      0.70068      0.78368      1.619 
O1       O      0.799959     0.20397      0.299959    -0.853 
O1       O      0.299959     0.70397      0.299959    -0.853 
O1       O      0.299959     0.20397      0.799959    -0.853 
O1       O      0.799959     0.70397      0.799959    -0.853 
C1       C      0.81586      0.23336      0.31586      0.496 
C1       C      0.31586      0.73336      0.31586      0.496 
C1       C      0.31586      0.23336      0.81586      0.496 
C1       C      0.81586      0.73336      0.81586      0.496 
C2       C      0.82145      0.24702      0.32145     -0.07  
C2       C      0.32145      0.74702      0.32145     -0.07  
C2       C      0.32145      0.24702      0.82145     -0.07  
C2       C      0.82145      0.74702      0.82145     -0.07  
C1       C      0.82917      0.29374      0.32917      0.496 
C1       C      0.32917      0.79374      0.32917      0.496 
C1       C      0.32917      0.29374      0.82917      0.496 
C1       C      0.82917      0.79374      0.82917      0.496 
C2       C      0.82732      0.277849     0.32732     -0.07  
C2       C      0.32732      0.777849     0.32732     -0.07  
C2       C      0.32732      0.277849     0.82732     -0.07  
C2       C      0.82732      0.777849     0.82732     -0.07  
Cr1      Cr     0.96632      0.20068      0.46632      1.619 
Cr1      Cr     0.46632      0.70068      0.46632      1.619 
Cr1      Cr     0.46632      0.20068      0.96632      1.619 
Cr1      Cr     0.96632      0.70068      0.96632      1.619 
O1       O      0.95004      0.20397      0.45004     -0.853 
O1       O      0.45004      0.70397      0.45004     -0.853 
O1       O      0.45004      0.20397      0.95004     -0.853 
O1       O      0.95004      0.70397      0.95004     -0.853 
C1       C      0.93414      0.23336      0.43414      0.496 
C1       C      0.43414      0.73336      0.43414      0.496 
C1       C      0.43414      0.23336      0.93414      0.496 
C1       C      0.93414      0.73336      0.93414      0.496 
C2       C      0.92855      0.24702      0.42855     -0.07  
C2       C      0.42855      0.74702      0.42855     -0.07  
C2       C      0.42855      0.24702      0.92855     -0.07  
C2       C      0.92855      0.74702      0.92855     -0.07  
C1       C      0.92083      0.29374      0.42083      0.496 
C1       C      0.42083      0.79374      0.42083      0.496 
C1       C      0.42083      0.29374      0.92083      0.496 
C1       C      0.92083      0.79374      0.92083      0.496 
C2       C      0.922679     0.277849     0.422679    -0.07  
C2       C      0.422679     0.777849     0.422679    -0.07  
C2       C      0.422679     0.277849     0.922679    -0.07  
C2       C      0.922679     0.777849     0.922679    -0.07  
Cr1      Cr     0.0493198    0.46632      0.28368      1.619 
Cr1      Cr     0.54932      0.96632      0.28368      1.619 
Cr1      Cr     0.54932      0.46632      0.78368      1.619 
Cr1      Cr     0.0493198    0.96632      0.78368      1.619 
O1       O      0.0460295    0.45004      0.299959    -0.853 
O1       O      0.54603      0.95004      0.299959    -0.853 
O1       O      0.54603      0.45004      0.799959    -0.853 
O1       O      0.0460295    0.95004      0.799959    -0.853 
C1       C      0.0166402    0.43414      0.31586      0.496 
C1       C      0.51664      0.93414      0.31586      0.496 
C1       C      0.51664      0.43414      0.81586      0.496 
C1       C      0.0166402    0.93414      0.81586      0.496 
C2       C      0.00297967   0.42855      0.32145     -0.07  
C2       C      0.50298      0.92855      0.32145     -0.07  
C2       C      0.50298      0.42855      0.82145     -0.07  
C2       C      0.00297967   0.92855      0.82145     -0.07  
C1       C      0.95626      0.42083      0.32917      0.496 
C1       C      0.45626      0.92083      0.32917      0.496 
C1       C      0.45626      0.42083      0.82917      0.496 
C1       C      0.95626      0.92083      0.82917      0.496 
C2       C      0.97215      0.422679     0.32732     -0.07  
C2       C      0.47215      0.922679     0.32732     -0.07  
C2       C      0.47215      0.422679     0.82732     -0.07  
C2       C      0.97215      0.922679     0.82732     -0.07  
Cr1      Cr     0.0493198    0.28368      0.46632      1.619 
Cr1      Cr     0.54932      0.78368      0.46632      1.619 
Cr1      Cr     0.54932      0.28368      0.96632      1.619 
Cr1      Cr     0.0493198    0.78368      0.96632      1.619 
O1       O      0.0460295    0.299959     0.45004     -0.853 
O1       O      0.54603      0.799959     0.45004     -0.853 
O1       O      0.54603      0.299959     0.95004     -0.853 
O1       O      0.0460295    0.799959     0.95004     -0.853 
C1       C      0.0166402    0.31586      0.43414      0.496 
C1       C      0.51664      0.81586      0.43414      0.496 
C1       C      0.51664      0.31586      0.93414      0.496 
C1       C      0.0166402    0.81586      0.93414      0.496 
C2       C      0.00297967   0.32145      0.42855     -0.07  
C2       C      0.50298      0.82145      0.42855     -0.07  
C2       C      0.50298      0.32145      0.92855     -0.07  
C2       C      0.00297967   0.82145      0.92855     -0.07  
C1       C      0.95626      0.32917      0.42083      0.496 
C1       C      0.45626      0.82917      0.42083      0.496 
C1       C      0.45626      0.32917      0.92083      0.496 
C1       C      0.95626      0.82917      0.92083      0.496 
C2       C      0.97215      0.32732      0.422679    -0.07  
C2       C      0.47215      0.82732      0.422679    -0.07  
C2       C      0.47215      0.32732      0.922679    -0.07  
C2       C      0.97215      0.82732      0.922679    -0.07  
Cr1      Cr     0.70068      0.46632      0.46632      1.619 
Cr1      Cr     0.20068      0.96632      0.46632      1.619 
Cr1      Cr     0.20068      0.46632      0.96632      1.619 
Cr1      Cr     0.70068      0.96632      0.96632      1.619 
O1       O      0.70397      0.45004      0.45004     -0.853 
O1       O      0.20397      0.95004      0.45004     -0.853 
O1       O      0.20397      0.45004      0.95004     -0.853 
O1       O      0.70397      0.95004      0.95004     -0.853 
C1       C      0.73336      0.43414      0.43414      0.496 
C1       C      0.23336      0.93414      0.43414      0.496 
C1       C      0.23336      0.43414      0.93414      0.496 
C1       C      0.73336      0.93414      0.93414      0.496 
C2       C      0.74702      0.42855      0.42855     -0.07  
C2       C      0.24702      0.92855      0.42855     -0.07  
C2       C      0.24702      0.42855      0.92855     -0.07  
C2       C      0.74702      0.92855      0.92855     -0.07  
C1       C      0.79374      0.42083      0.42083      0.496 
C1       C      0.29374      0.92083      0.42083      0.496 
C1       C      0.29374      0.42083      0.92083      0.496 
C1       C      0.79374      0.92083      0.92083      0.496 
C2       C      0.777849     0.422679     0.422679    -0.07  
C2       C      0.277849     0.922679     0.422679    -0.07  
C2       C      0.277849     0.422679     0.922679    -0.07  
C2       C      0.777849     0.922679     0.922679    -0.07  
Cr1      Cr     0.70068      0.28368      0.28368      1.619 
Cr1      Cr     0.20068      0.78368      0.28368      1.619 
Cr1      Cr     0.20068      0.28368      0.78368      1.619 
Cr1      Cr     0.70068      0.78368      0.78368      1.619 
O1       O      0.70397      0.299959     0.299959    -0.853 
O1       O      0.20397      0.799959     0.299959    -0.853 
O1       O      0.20397      0.299959     0.799959    -0.853 
O1       O      0.70397      0.799959     0.799959    -0.853 
C1       C      0.73336      0.31586      0.31586      0.496 
C1       C      0.23336      0.81586      0.31586      0.496 
C1       C      0.23336      0.31586      0.81586      0.496 
C1       C      0.73336      0.81586      0.81586      0.496 
C2       C      0.74702      0.32145      0.32145     -0.07  
C2       C      0.24702      0.82145      0.32145     -0.07  
C2       C      0.24702      0.32145      0.82145     -0.07  
C2       C      0.74702      0.82145      0.82145     -0.07  
C1       C      0.79374      0.32917      0.32917      0.496 
C1       C      0.29374      0.82917      0.32917      0.496 
C1       C      0.29374      0.32917      0.82917      0.496 
C1       C      0.79374      0.82917      0.82917      0.496 
C2       C      0.777849     0.32732      0.32732     -0.07  
C2       C      0.277849     0.82732      0.32732     -0.07  
C2       C      0.277849     0.32732      0.82732     -0.07  
C2       C      0.777849     0.82732      0.82732     -0.07  
O1       O      0.079157     0.079157     0.170844    -0.853 
O1       O      0.579157     0.579157     0.170844    -0.853 
O1       O      0.579157     0.079157     0.670844    -0.853 
O1       O      0.079157     0.579157     0.670844    -0.853 
O1       O      0.170844     0.170844     0.170844    -0.853 
O1       O      0.670844     0.670844     0.170844    -0.853 
O1       O      0.670844     0.170844     0.670844    -0.853 
O1       O      0.170844     0.670844     0.670844    -0.853 
O1       O      0.170844     0.079157     0.079157    -0.853 
O1       O      0.670844     0.579157     0.079157    -0.853 
O1       O      0.670844     0.079157     0.579157    -0.853 
O1       O      0.170844     0.579157     0.579157    -0.853 
O1       O      0.079157     0.170844     0.079157    -0.853 
O1       O      0.579157     0.670844     0.079157    -0.853 
O1       O      0.579157     0.170844     0.579157    -0.853 
O1       O      0.079157     0.670844     0.579157    -0.853 
O1       O      0.829156     0.329156     0.329156    -0.853 
O1       O      0.329156     0.829156     0.329156    -0.853 
O1       O      0.329156     0.329156     0.829156    -0.853 
O1       O      0.829156     0.829156     0.829156    -0.853 
O1       O      0.920843     0.420843     0.329156    -0.853 
O1       O      0.420843     0.920843     0.329156    -0.853 
O1       O      0.420843     0.420843     0.829156    -0.853 
O1       O      0.920843     0.920843     0.829156    -0.853 
O1       O      0.829156     0.420843     0.420843    -0.853 
O1       O      0.329156     0.920843     0.420843    -0.853 
O1       O      0.329156     0.420843     0.920843    -0.853 
O1       O      0.829156     0.920843     0.920843    -0.853 
O1       O      0.920843     0.329156     0.420843    -0.853 
O1       O      0.420843     0.829156     0.420843    -0.853 
O1       O      0.420843     0.329156     0.920843    -0.853 
O1       O      0.920843     0.829156     0.920843    -0.853 
O1       O      0.625        0.37633      0.125       -0.853 
O1       O      0.125        0.87633      0.125       -0.853 
O1       O      0.125        0.37633      0.625       -0.853 
O1       O      0.625        0.87633      0.625       -0.853 
O1       O      0.125        0.37367      0.125       -0.853 
O1       O      0.625        0.87367      0.125       -0.853 
O1       O      0.625        0.37367      0.625       -0.853 
O1       O      0.125        0.87367      0.625       -0.853 
O1       O      0.625        0.125        0.37633     -0.853 
O1       O      0.125        0.625        0.37633     -0.853 
O1       O      0.125        0.125        0.87633     -0.853 
O1       O      0.625        0.625        0.87633     -0.853 
O1       O      0.125        0.125        0.37367     -0.853 
O1       O      0.625        0.625        0.37367     -0.853 
O1       O      0.625        0.125        0.87367     -0.853 
O1       O      0.125        0.625        0.87367     -0.853 
O1       O      0.87633      0.125        0.125       -0.853 
O1       O      0.37633      0.625        0.125       -0.853 
O1       O      0.37633      0.125        0.625       -0.853 
O1       O      0.87633      0.625        0.625       -0.853 
O1       O      0.37367      0.125        0.125       -0.853 
O1       O      0.87367      0.625        0.125       -0.853 
O1       O      0.87367      0.125        0.625       -0.853 
O1       O      0.37367      0.625        0.625       -0.853 
O1       O      0.62633      0.375        0.375       -0.853 
O1       O      0.12633      0.875        0.375       -0.853 
O1       O      0.12633      0.375        0.875       -0.853 
O1       O      0.62633      0.875        0.875       -0.853 
O1       O      0.12367      0.375        0.375       -0.853 
O1       O      0.62367      0.875        0.375       -0.853 
O1       O      0.62367      0.375        0.875       -0.853 
O1       O      0.12367      0.875        0.875       -0.853 
O1       O      0.375        0.375        0.12367     -0.853 
O1       O      0.875        0.875        0.12367     -0.853 
O1       O      0.875        0.375        0.62367     -0.853 
O1       O      0.375        0.875        0.62367     -0.853 
O1       O      0.875        0.375        0.12633     -0.853 
O1       O      0.375        0.875        0.12633     -0.853 
O1       O      0.375        0.375        0.62633     -0.853 
O1       O      0.875        0.875        0.62633     -0.853 
O1       O      0.875        0.12633      0.375       -0.853 
O1       O      0.375        0.62633      0.375       -0.853 
O1       O      0.375        0.12633      0.875       -0.853 
O1       O      0.875        0.62633      0.875       -0.853 
O1       O      0.375        0.12367      0.375       -0.853 
O1       O      0.875        0.62367      0.375       -0.853 
O1       O      0.875        0.12367      0.875       -0.853 
O1       O      0.375        0.62367      0.875       -0.853 
F1       F      0.48107      0.0435799    0.26893     -0.547 
F1       F      0.98107      0.54358      0.26893     -0.547 
F1       F      0.98107      0.0435799    0.76893     -0.547 
F1       F      0.48107      0.54358      0.76893     -0.547 
F1       F      0.26893      0.0435799    0.48107     -0.547 
F1       F      0.76893      0.54358      0.48107     -0.547 
F1       F      0.76893      0.0435799    0.98107     -0.547 
F1       F      0.26893      0.54358      0.98107     -0.547 
F1       F      0.76893      0.26893      0.20642     -0.547 
F1       F      0.26893      0.76893      0.20642     -0.547 
F1       F      0.26893      0.26893      0.70642     -0.547 
F1       F      0.76893      0.76893      0.70642     -0.547 
F1       F      0.48107      0.26893      0.0435799   -0.547 
F1       F      0.98107      0.76893      0.0435799   -0.547 
F1       F      0.98107      0.26893      0.54358     -0.547 
F1       F      0.48107      0.76893      0.54358     -0.547 
F1       F      0.95642      0.0189301    0.23107     -0.547 
F1       F      0.45642      0.51893      0.23107     -0.547 
F1       F      0.45642      0.0189301    0.73107     -0.547 
F1       F      0.95642      0.51893      0.73107     -0.547 
F1       F      0.95642      0.23107      0.0189301   -0.547 
F1       F      0.45642      0.73107      0.0189301   -0.547 
F1       F      0.45642      0.23107      0.51893     -0.547 
F1       F      0.95642      0.73107      0.51893     -0.547 
F1       F      0.23107      0.23107      0.29358     -0.547 
F1       F      0.73107      0.73107      0.29358     -0.547 
F1       F      0.73107      0.23107      0.79358     -0.547 
F1       F      0.23107      0.73107      0.79358     -0.547 
C1       C      0.146585     0.103415     0.06614      0.496 
C1       C      0.646585     0.603415     0.06614      0.496 
C1       C      0.646585     0.103415     0.56614      0.496 
C1       C      0.146585     0.603415     0.56614      0.496 
C2       C      0.13577      0.11423      0.0667994   -0.07  
C2       C      0.63577      0.61423      0.0667994   -0.07  
C2       C      0.63577      0.11423      0.566799    -0.07  
C2       C      0.13577      0.61423      0.566799    -0.07  
C1       C      0.103415     0.146585     0.06614      0.496 
C1       C      0.603415     0.646585     0.06614      0.496 
C1       C      0.603415     0.146585     0.56614      0.496 
C1       C      0.103415     0.646585     0.56614      0.496 
C2       C      0.11423      0.13577      0.0667994   -0.07  
C2       C      0.61423      0.63577      0.0667994   -0.07  
C2       C      0.61423      0.13577      0.566799    -0.07  
C2       C      0.11423      0.63577      0.566799    -0.07  
C1       C      0.103415     0.103415     0.183861     0.496 
C1       C      0.603415     0.603415     0.183861     0.496 
C1       C      0.603415     0.103415     0.683859     0.496 
C1       C      0.103415     0.603415     0.683859     0.496 
C2       C      0.11423      0.11423      0.1832      -0.07  
C2       C      0.61423      0.61423      0.1832      -0.07  
C2       C      0.61423      0.11423      0.6832      -0.07  
C2       C      0.11423      0.61423      0.6832      -0.07  
C1       C      0.146585     0.146585     0.183861     0.496 
C1       C      0.646585     0.646585     0.183861     0.496 
C1       C      0.646585     0.146585     0.683859     0.496 
C1       C      0.146585     0.646585     0.683859     0.496 
C2       C      0.13577      0.13577      0.1832      -0.07  
C2       C      0.63577      0.63577      0.1832      -0.07  
C2       C      0.63577      0.13577      0.6832      -0.07  
C2       C      0.13577      0.63577      0.6832      -0.07  
C1       C      0.06614      0.146585     0.103415     0.496 
C1       C      0.56614      0.646585     0.103415     0.496 
C1       C      0.56614      0.146585     0.603415     0.496 
C1       C      0.06614      0.646585     0.603415     0.496 
C2       C      0.0667994    0.13577      0.11423     -0.07  
C2       C      0.566799     0.63577      0.11423     -0.07  
C2       C      0.566799     0.13577      0.61423     -0.07  
C2       C      0.0667994    0.63577      0.61423     -0.07  
C1       C      0.06614      0.103415     0.146585     0.496 
C1       C      0.56614      0.603415     0.146585     0.496 
C1       C      0.56614      0.103415     0.646585     0.496 
C1       C      0.06614      0.603415     0.646585     0.496 
C2       C      0.0667994    0.11423      0.13577     -0.07  
C2       C      0.566799     0.61423      0.13577     -0.07  
C2       C      0.566799     0.11423      0.63577     -0.07  
C2       C      0.0667994    0.61423      0.63577     -0.07  
C1       C      0.183861     0.103415     0.103415     0.496 
C1       C      0.683859     0.603415     0.103415     0.496 
C1       C      0.683859     0.103415     0.603415     0.496 
C1       C      0.183861     0.603415     0.603415     0.496 
C2       C      0.1832       0.11423      0.11423     -0.07  
C2       C      0.6832       0.61423      0.11423     -0.07  
C2       C      0.6832       0.11423      0.61423     -0.07  
C2       C      0.1832       0.61423      0.61423     -0.07  
C1       C      0.183861     0.146585     0.146585     0.496 
C1       C      0.683859     0.646585     0.146585     0.496 
C1       C      0.683859     0.146585     0.646585     0.496 
C1       C      0.183861     0.646585     0.646585     0.496 
C2       C      0.1832       0.13577      0.13577     -0.07  
C2       C      0.6832       0.63577      0.13577     -0.07  
C2       C      0.6832       0.13577      0.63577     -0.07  
C2       C      0.1832       0.63577      0.63577     -0.07  
C1       C      0.103415     0.06614      0.146585     0.496 
C1       C      0.603415     0.56614      0.146585     0.496 
C1       C      0.603415     0.06614      0.646585     0.496 
C1       C      0.103415     0.56614      0.646585     0.496 
C2       C      0.11423      0.0667994    0.13577     -0.07  
C2       C      0.61423      0.566799     0.13577     -0.07  
C2       C      0.61423      0.0667994    0.63577     -0.07  
C2       C      0.11423      0.566799     0.63577     -0.07  
C1       C      0.146585     0.06614      0.103415     0.496 
C1       C      0.646585     0.56614      0.103415     0.496 
C1       C      0.646585     0.06614      0.603415     0.496 
C1       C      0.146585     0.56614      0.603415     0.496 
C2       C      0.13577      0.0667994    0.11423     -0.07  
C2       C      0.63577      0.566799     0.11423     -0.07  
C2       C      0.63577      0.0667994    0.61423     -0.07  
C2       C      0.13577      0.566799     0.61423     -0.07  
C1       C      0.103415     0.183861     0.103415     0.496 
C1       C      0.603415     0.683859     0.103415     0.496 
C1       C      0.603415     0.183861     0.603415     0.496 
C1       C      0.103415     0.683859     0.603415     0.496 
C2       C      0.11423      0.1832       0.11423     -0.07  
C2       C      0.61423      0.6832       0.11423     -0.07  
C2       C      0.61423      0.1832       0.61423     -0.07  
C2       C      0.11423      0.6832       0.61423     -0.07  
C1       C      0.146585     0.183861     0.146585     0.496 
C1       C      0.646585     0.683859     0.146585     0.496 
C1       C      0.646585     0.183861     0.646585     0.496 
C1       C      0.146585     0.683859     0.646585     0.496 
C2       C      0.13577      0.1832       0.13577     -0.07  
C2       C      0.63577      0.6832       0.13577     -0.07  
C2       C      0.63577      0.1832       0.63577     -0.07  
C2       C      0.13577      0.6832       0.63577     -0.07  
C1       C      0.853415     0.396585     0.43386      0.496 
C1       C      0.353415     0.896585     0.43386      0.496 
C1       C      0.353415     0.396585     0.93386      0.496 
C1       C      0.853415     0.896585     0.93386      0.496 
C2       C      0.864229     0.38577      0.433199    -0.07  
C2       C      0.36423      0.88577      0.433199    -0.07  
C2       C      0.36423      0.38577      0.933199    -0.07  
C2       C      0.864229     0.88577      0.933199    -0.07  
C1       C      0.896585     0.353415     0.43386      0.496 
C1       C      0.396585     0.853415     0.43386      0.496 
C1       C      0.396585     0.353415     0.93386      0.496 
C1       C      0.896585     0.853415     0.93386      0.496 
C2       C      0.88577      0.36423      0.433199    -0.07  
C2       C      0.38577      0.864229     0.433199    -0.07  
C2       C      0.38577      0.36423      0.933199    -0.07  
C2       C      0.88577      0.864229     0.933199    -0.07  
C1       C      0.853415     0.353415     0.316139     0.496 
C1       C      0.353415     0.853415     0.316139     0.496 
C1       C      0.353415     0.353415     0.816139     0.496 
C1       C      0.853415     0.853415     0.816139     0.496 
C2       C      0.864229     0.36423      0.3168      -0.07  
C2       C      0.36423      0.864229     0.3168      -0.07  
C2       C      0.36423      0.36423      0.8168      -0.07  
C2       C      0.864229     0.864229     0.8168      -0.07  
C1       C      0.896585     0.396585     0.316139     0.496 
C1       C      0.396585     0.896585     0.316139     0.496 
C1       C      0.396585     0.396585     0.816139     0.496 
C1       C      0.896585     0.896585     0.816139     0.496 
C2       C      0.88577      0.38577      0.3168      -0.07  
C2       C      0.38577      0.88577      0.3168      -0.07  
C2       C      0.38577      0.38577      0.8168      -0.07  
C2       C      0.88577      0.88577      0.8168      -0.07  
C1       C      0.896585     0.316139     0.396585     0.496 
C1       C      0.396585     0.816139     0.396585     0.496 
C1       C      0.396585     0.316139     0.896585     0.496 
C1       C      0.896585     0.816139     0.896585     0.496 
C2       C      0.88577      0.3168       0.38577     -0.07  
C2       C      0.38577      0.8168       0.38577     -0.07  
C2       C      0.38577      0.3168       0.88577     -0.07  
C2       C      0.88577      0.8168       0.88577     -0.07  
C1       C      0.853415     0.316139     0.353415     0.496 
C1       C      0.353415     0.816139     0.353415     0.496 
C1       C      0.353415     0.316139     0.853415     0.496 
C1       C      0.853415     0.816139     0.853415     0.496 
C2       C      0.864229     0.3168       0.36423     -0.07  
C2       C      0.36423      0.8168       0.36423     -0.07  
C2       C      0.36423      0.3168       0.864229    -0.07  
C2       C      0.864229     0.8168       0.864229    -0.07  
C1       C      0.853415     0.43386      0.396585     0.496 
C1       C      0.353415     0.93386      0.396585     0.496 
C1       C      0.353415     0.43386      0.896585     0.496 
C1       C      0.853415     0.93386      0.896585     0.496 
C2       C      0.864229     0.433199     0.38577     -0.07  
C2       C      0.36423      0.933199     0.38577     -0.07  
C2       C      0.36423      0.433199     0.88577     -0.07  
C2       C      0.864229     0.933199     0.88577     -0.07  
C1       C      0.896585     0.43386      0.353415     0.496 
C1       C      0.396585     0.93386      0.353415     0.496 
C1       C      0.396585     0.43386      0.853415     0.496 
C1       C      0.896585     0.93386      0.853415     0.496 
C2       C      0.88577      0.433199     0.36423     -0.07  
C2       C      0.38577      0.933199     0.36423     -0.07  
C2       C      0.38577      0.433199     0.864229    -0.07  
C2       C      0.88577      0.933199     0.864229    -0.07  
C1       C      0.816139     0.353415     0.353415     0.496 
C1       C      0.316139     0.853415     0.353415     0.496 
C1       C      0.316139     0.353415     0.853415     0.496 
C1       C      0.816139     0.853415     0.853415     0.496 
C2       C      0.8168       0.36423      0.36423     -0.07  
C2       C      0.3168       0.864229     0.36423     -0.07  
C2       C      0.3168       0.36423      0.864229    -0.07  
C2       C      0.8168       0.864229     0.864229    -0.07  
C1       C      0.816139     0.396585     0.396585     0.496 
C1       C      0.316139     0.896585     0.396585     0.496 
C1       C      0.316139     0.396585     0.896585     0.496 
C1       C      0.816139     0.896585     0.896585     0.496 
C2       C      0.8168       0.38577      0.38577     -0.07  
C2       C      0.3168       0.88577      0.38577     -0.07  
C2       C      0.3168       0.38577      0.88577     -0.07  
C2       C      0.8168       0.88577      0.88577     -0.07  
C1       C      0.93386      0.353415     0.396585     0.496 
C1       C      0.43386      0.853415     0.396585     0.496 
C1       C      0.43386      0.353415     0.896585     0.496 
C1       C      0.93386      0.853415     0.896585     0.496 
C2       C      0.933199     0.36423      0.38577     -0.07  
C2       C      0.433199     0.864229     0.38577     -0.07  
C2       C      0.433199     0.36423      0.88577     -0.07  
C2       C      0.933199     0.864229     0.88577     -0.07  
C1       C      0.93386      0.396585     0.353415     0.496 
C1       C      0.43386      0.896585     0.353415     0.496 
C1       C      0.43386      0.396585     0.853415     0.496 
C1       C      0.93386      0.896585     0.853415     0.496 
C2       C      0.933199     0.38577      0.36423     -0.07  
C2       C      0.433199     0.88577      0.36423     -0.07  
C2       C      0.433199     0.38577      0.864229    -0.07  
C2       C      0.933199     0.88577      0.864229    -0.07  
C1       C      0.6947       0.4266       0.4266       0.496 
C1       C      0.1947       0.9266       0.4266       0.496 
C1       C      0.1947       0.4266       0.9266       0.496 
C1       C      0.6947       0.9266       0.9266       0.496 
C2       C      0.68725      0.41657      0.41657     -0.07  
C2       C      0.18725      0.91657      0.41657     -0.07  
C2       C      0.18725      0.41657      0.91657     -0.07  
C2       C      0.68725      0.91657      0.91657     -0.07  
C1       C      0.65361      0.39174      0.39174      0.496 
C1       C      0.15361      0.89174      0.39174      0.496 
C1       C      0.15361      0.39174      0.89174      0.496 
C1       C      0.65361      0.89174      0.89174      0.496 
C2       C      0.661839     0.40196      0.40196     -0.07  
C2       C      0.16184      0.90196      0.40196     -0.07  
C2       C      0.16184      0.40196      0.90196     -0.07  
C2       C      0.661839     0.90196      0.90196     -0.07  
C1       C      0.0553005    0.3234       0.4266       0.496 
C1       C      0.555299     0.8234       0.4266       0.496 
C1       C      0.555299     0.3234       0.9266       0.496 
C1       C      0.0553005    0.8234       0.9266       0.496 
C2       C      0.0627497    0.33343      0.41657     -0.07  
C2       C      0.56275      0.83343      0.41657     -0.07  
C2       C      0.56275      0.33343      0.91657     -0.07  
C2       C      0.0627497    0.83343      0.91657     -0.07  
C1       C      0.0963902    0.35826      0.39174      0.496 
C1       C      0.59639      0.85826      0.39174      0.496 
C1       C      0.59639      0.35826      0.89174      0.496 
C1       C      0.0963902    0.85826      0.89174      0.496 
C2       C      0.0881601    0.34804      0.40196     -0.07  
C2       C      0.58816      0.84804      0.40196     -0.07  
C2       C      0.58816      0.34804      0.90196     -0.07  
C2       C      0.0881601    0.84804      0.90196     -0.07  
C1       C      0.0553005    0.4266       0.3234       0.496 
C1       C      0.555299     0.9266       0.3234       0.496 
C1       C      0.555299     0.4266       0.8234       0.496 
C1       C      0.0553005    0.9266       0.8234       0.496 
C2       C      0.0627497    0.41657      0.33343     -0.07  
C2       C      0.56275      0.91657      0.33343     -0.07  
C2       C      0.56275      0.41657      0.83343     -0.07  
C2       C      0.0627497    0.91657      0.83343     -0.07  
C1       C      0.0963902    0.39174      0.35826      0.496 
C1       C      0.59639      0.89174      0.35826      0.496 
C1       C      0.59639      0.39174      0.85826      0.496 
C1       C      0.0963902    0.89174      0.85826      0.496 
C2       C      0.0881601    0.40196      0.34804     -0.07  
C2       C      0.58816      0.90196      0.34804     -0.07  
C2       C      0.58816      0.40196      0.84804     -0.07  
C2       C      0.0881601    0.90196      0.84804     -0.07  
C1       C      0.6947       0.3234       0.3234       0.496 
C1       C      0.1947       0.8234       0.3234       0.496 
C1       C      0.1947       0.3234       0.8234       0.496 
C1       C      0.6947       0.8234       0.8234       0.496 
C2       C      0.68725      0.33343      0.33343     -0.07  
C2       C      0.18725      0.83343      0.33343     -0.07  
C2       C      0.18725      0.33343      0.83343     -0.07  
C2       C      0.68725      0.83343      0.83343     -0.07  
C1       C      0.65361      0.35826      0.35826      0.496 
C1       C      0.15361      0.85826      0.35826      0.496 
C1       C      0.15361      0.35826      0.85826      0.496 
C1       C      0.65361      0.85826      0.85826      0.496 
C2       C      0.661839     0.34804      0.34804     -0.07  
C2       C      0.16184      0.84804      0.34804     -0.07  
C2       C      0.16184      0.34804      0.84804     -0.07  
C2       C      0.661839     0.84804      0.84804     -0.07  
C1       C      0.9266       0.1947       0.4266       0.496 
C1       C      0.4266       0.6947       0.4266       0.496 
C1       C      0.4266       0.1947       0.9266       0.496 
C1       C      0.9266       0.6947       0.9266       0.496 
C2       C      0.91657      0.18725      0.41657     -0.07  
C2       C      0.41657      0.68725      0.41657     -0.07  
C2       C      0.41657      0.18725      0.91657     -0.07  
C2       C      0.91657      0.68725      0.91657     -0.07  
C1       C      0.89174      0.15361      0.39174      0.496 
C1       C      0.39174      0.65361      0.39174      0.496 
C1       C      0.39174      0.15361      0.89174      0.496 
C1       C      0.89174      0.65361      0.89174      0.496 
C2       C      0.90196      0.16184      0.40196     -0.07  
C2       C      0.40196      0.661839     0.40196     -0.07  
C2       C      0.40196      0.16184      0.90196     -0.07  
C2       C      0.90196      0.661839     0.90196     -0.07  
C1       C      0.4266       0.0553005    0.3234       0.496 
C1       C      0.9266       0.555299     0.3234       0.496 
C1       C      0.9266       0.0553005    0.8234       0.496 
C1       C      0.4266       0.555299     0.8234       0.496 
C2       C      0.41657      0.0627497    0.33343     -0.07  
C2       C      0.91657      0.56275      0.33343     -0.07  
C2       C      0.91657      0.0627497    0.83343     -0.07  
C2       C      0.41657      0.56275      0.83343     -0.07  
C1       C      0.39174      0.0963902    0.35826      0.496 
C1       C      0.89174      0.59639      0.35826      0.496 
C1       C      0.89174      0.0963902    0.85826      0.496 
C1       C      0.39174      0.59639      0.85826      0.496 
C2       C      0.40196      0.0881601    0.34804     -0.07  
C2       C      0.90196      0.58816      0.34804     -0.07  
C2       C      0.90196      0.0881601    0.84804     -0.07  
C2       C      0.40196      0.58816      0.84804     -0.07  
C1       C      0.3234       0.0553005    0.4266       0.496 
C1       C      0.8234       0.555299     0.4266       0.496 
C1       C      0.8234       0.0553005    0.9266       0.496 
C1       C      0.3234       0.555299     0.9266       0.496 
C2       C      0.33343      0.0627497    0.41657     -0.07  
C2       C      0.83343      0.56275      0.41657     -0.07  
C2       C      0.83343      0.0627497    0.91657     -0.07  
C2       C      0.33343      0.56275      0.91657     -0.07  
C1       C      0.35826      0.0963902    0.39174      0.496 
C1       C      0.85826      0.59639      0.39174      0.496 
C1       C      0.85826      0.0963902    0.89174      0.496 
C1       C      0.35826      0.59639      0.89174      0.496 
C2       C      0.34804      0.0881601    0.40196     -0.07  
C2       C      0.84804      0.58816      0.40196     -0.07  
C2       C      0.84804      0.0881601    0.90196     -0.07  
C2       C      0.34804      0.58816      0.90196     -0.07  
C1       C      0.8234       0.1947       0.3234       0.496 
C1       C      0.3234       0.6947       0.3234       0.496 
C1       C      0.3234       0.1947       0.8234       0.496 
C1       C      0.8234       0.6947       0.8234       0.496 
C2       C      0.83343      0.18725      0.33343     -0.07  
C2       C      0.33343      0.68725      0.33343     -0.07  
C2       C      0.33343      0.18725      0.83343     -0.07  
C2       C      0.83343      0.68725      0.83343     -0.07  
C1       C      0.85826      0.15361      0.35826      0.496 
C1       C      0.35826      0.65361      0.35826      0.496 
C1       C      0.35826      0.15361      0.85826      0.496 
C1       C      0.85826      0.65361      0.85826      0.496 
C2       C      0.84804      0.16184      0.34804     -0.07  
C2       C      0.34804      0.661839     0.34804     -0.07  
C2       C      0.34804      0.16184      0.84804     -0.07  
C2       C      0.84804      0.661839     0.84804     -0.07  
C1       C      0.9266       0.4266       0.1947       0.496 
C1       C      0.4266       0.9266       0.1947       0.496 
C1       C      0.4266       0.4266       0.6947       0.496 
C1       C      0.9266       0.9266       0.6947       0.496 
C2       C      0.91657      0.41657      0.18725     -0.07  
C2       C      0.41657      0.91657      0.18725     -0.07  
C2       C      0.41657      0.41657      0.68725     -0.07  
C2       C      0.91657      0.91657      0.68725     -0.07  
C1       C      0.89174      0.39174      0.15361      0.496 
C1       C      0.39174      0.89174      0.15361      0.496 
C1       C      0.39174      0.39174      0.65361      0.496 
C1       C      0.89174      0.89174      0.65361      0.496 
C2       C      0.90196      0.40196      0.16184     -0.07  
C2       C      0.40196      0.90196      0.16184     -0.07  
C2       C      0.40196      0.40196      0.661839    -0.07  
C2       C      0.90196      0.90196      0.661839    -0.07  
C1       C      0.3234       0.4266       0.0553005    0.496 
C1       C      0.8234       0.9266       0.0553005    0.496 
C1       C      0.8234       0.4266       0.555299     0.496 
C1       C      0.3234       0.9266       0.555299     0.496 
C2       C      0.33343      0.41657      0.0627497   -0.07  
C2       C      0.83343      0.91657      0.0627497   -0.07  
C2       C      0.83343      0.41657      0.56275     -0.07  
C2       C      0.33343      0.91657      0.56275     -0.07  
C1       C      0.35826      0.39174      0.0963902    0.496 
C1       C      0.85826      0.89174      0.0963902    0.496 
C1       C      0.85826      0.39174      0.59639      0.496 
C1       C      0.35826      0.89174      0.59639      0.496 
C2       C      0.34804      0.40196      0.0881601   -0.07  
C2       C      0.84804      0.90196      0.0881601   -0.07  
C2       C      0.84804      0.40196      0.58816     -0.07  
C2       C      0.34804      0.90196      0.58816     -0.07  
C1       C      0.4266       0.3234       0.0553005    0.496 
C1       C      0.9266       0.8234       0.0553005    0.496 
C1       C      0.9266       0.3234       0.555299     0.496 
C1       C      0.4266       0.8234       0.555299     0.496 
C2       C      0.41657      0.33343      0.0627497   -0.07  
C2       C      0.91657      0.83343      0.0627497   -0.07  
C2       C      0.91657      0.33343      0.56275     -0.07  
C2       C      0.41657      0.83343      0.56275     -0.07  
C1       C      0.39174      0.35826      0.0963902    0.496 
C1       C      0.89174      0.85826      0.0963902    0.496 
C1       C      0.89174      0.35826      0.59639      0.496 
C1       C      0.39174      0.85826      0.59639      0.496 
C2       C      0.40196      0.34804      0.0881601   -0.07  
C2       C      0.90196      0.84804      0.0881601   -0.07  
C2       C      0.90196      0.34804      0.58816     -0.07  
C2       C      0.40196      0.84804      0.58816     -0.07  
C1       C      0.8234       0.3234       0.1947       0.496 
C1       C      0.3234       0.8234       0.1947       0.496 
C1       C      0.3234       0.3234       0.6947       0.496 
C1       C      0.8234       0.8234       0.6947       0.496 
C2       C      0.83343      0.33343      0.18725     -0.07  
C2       C      0.33343      0.83343      0.18725     -0.07  
C2       C      0.33343      0.33343      0.68725     -0.07  
C2       C      0.83343      0.83343      0.68725     -0.07  
C1       C      0.85826      0.35826      0.15361      0.496 
C1       C      0.35826      0.85826      0.15361      0.496 
C1       C      0.35826      0.35826      0.65361      0.496 
C1       C      0.85826      0.85826      0.65361      0.496 
C2       C      0.84804      0.34804      0.16184     -0.07  
C2       C      0.34804      0.84804      0.16184     -0.07  
C2       C      0.34804      0.34804      0.661839    -0.07  
C2       C      0.84804      0.84804      0.661839    -0.07  
C1       C      0.6766       0.4447       0.0734002    0.496 
C1       C      0.1766       0.9447       0.0734002    0.496 
C1       C      0.1766       0.4447       0.5734       0.496 
C1       C      0.6766       0.9447       0.5734       0.496 
C2       C      0.66657      0.43725      0.0834295   -0.07  
C2       C      0.16657      0.93725      0.0834295   -0.07  
C2       C      0.16657      0.43725      0.58343     -0.07  
C2       C      0.66657      0.93725      0.58343     -0.07  
C1       C      0.64174      0.40361      0.10826      0.496 
C1       C      0.14174      0.90361      0.10826      0.496 
C1       C      0.14174      0.40361      0.60826      0.496 
C1       C      0.64174      0.90361      0.60826      0.496 
C2       C      0.65196      0.41184      0.0980398   -0.07  
C2       C      0.15196      0.91184      0.0980398   -0.07  
C2       C      0.15196      0.41184      0.59804     -0.07  
C2       C      0.65196      0.91184      0.59804     -0.07  
C1       C      0.0734002    0.3053       0.0734002    0.496 
C1       C      0.5734       0.8053       0.0734002    0.496 
C1       C      0.5734       0.3053       0.5734       0.496 
C1       C      0.0734002    0.8053       0.5734       0.496 
C2       C      0.0834295    0.31275      0.0834295   -0.07  
C2       C      0.58343      0.81275      0.0834295   -0.07  
C2       C      0.58343      0.31275      0.58343     -0.07  
C2       C      0.0834295    0.81275      0.58343     -0.07  
C1       C      0.10826      0.34639      0.10826      0.496 
C1       C      0.60826      0.84639      0.10826      0.496 
C1       C      0.60826      0.34639      0.60826      0.496 
C1       C      0.10826      0.84639      0.60826      0.496 
C2       C      0.0980398    0.33816      0.0980398   -0.07  
C2       C      0.59804      0.83816      0.0980398   -0.07  
C2       C      0.59804      0.33816      0.59804     -0.07  
C2       C      0.0980398    0.83816      0.59804     -0.07  
C1       C      0.1766       0.3053       0.1766       0.496 
C1       C      0.6766       0.8053       0.1766       0.496 
C1       C      0.6766       0.3053       0.6766       0.496 
C1       C      0.1766       0.8053       0.6766       0.496 
C2       C      0.16657      0.31275      0.16657     -0.07  
C2       C      0.66657      0.81275      0.16657     -0.07  
C2       C      0.66657      0.31275      0.66657     -0.07  
C2       C      0.16657      0.81275      0.66657     -0.07  
C1       C      0.14174      0.34639      0.14174      0.496 
C1       C      0.64174      0.84639      0.14174      0.496 
C1       C      0.64174      0.34639      0.64174      0.496 
C1       C      0.14174      0.84639      0.64174      0.496 
C2       C      0.15196      0.33816      0.15196     -0.07  
C2       C      0.65196      0.83816      0.15196     -0.07  
C2       C      0.65196      0.33816      0.65196     -0.07  
C2       C      0.15196      0.83816      0.65196     -0.07  
C1       C      0.5734       0.4447       0.1766       0.496 
C1       C      0.0734002    0.9447       0.1766       0.496 
C1       C      0.0734002    0.4447       0.6766       0.496 
C1       C      0.5734       0.9447       0.6766       0.496 
C2       C      0.58343      0.43725      0.16657     -0.07  
C2       C      0.0834295    0.93725      0.16657     -0.07  
C2       C      0.0834295    0.43725      0.66657     -0.07  
C2       C      0.58343      0.93725      0.66657     -0.07  
C1       C      0.60826      0.40361      0.14174      0.496 
C1       C      0.10826      0.90361      0.14174      0.496 
C1       C      0.10826      0.40361      0.64174      0.496 
C1       C      0.60826      0.90361      0.64174      0.496 
C2       C      0.59804      0.41184      0.15196     -0.07  
C2       C      0.0980398    0.91184      0.15196     -0.07  
C2       C      0.0980398    0.41184      0.65196     -0.07  
C2       C      0.59804      0.91184      0.65196     -0.07  
C1       C      0.9447       0.1766       0.0734002    0.496 
C1       C      0.4447       0.6766       0.0734002    0.496 
C1       C      0.4447       0.1766       0.5734       0.496 
C1       C      0.9447       0.6766       0.5734       0.496 
C2       C      0.93725      0.16657      0.0834295   -0.07  
C2       C      0.43725      0.66657      0.0834295   -0.07  
C2       C      0.43725      0.16657      0.58343     -0.07  
C2       C      0.93725      0.66657      0.58343     -0.07  
C1       C      0.90361      0.14174      0.10826      0.496 
C1       C      0.40361      0.64174      0.10826      0.496 
C1       C      0.40361      0.14174      0.60826      0.496 
C1       C      0.90361      0.64174      0.60826      0.496 
C2       C      0.91184      0.15196      0.0980398   -0.07  
C2       C      0.41184      0.65196      0.0980398   -0.07  
C2       C      0.41184      0.15196      0.59804     -0.07  
C2       C      0.91184      0.65196      0.59804     -0.07  
C1       C      0.3053       0.1766       0.1766       0.496 
C1       C      0.8053       0.6766       0.1766       0.496 
C1       C      0.8053       0.1766       0.6766       0.496 
C1       C      0.3053       0.6766       0.6766       0.496 
C2       C      0.31275      0.16657      0.16657     -0.07  
C2       C      0.81275      0.66657      0.16657     -0.07  
C2       C      0.81275      0.16657      0.66657     -0.07  
C2       C      0.31275      0.66657      0.66657     -0.07  
C1       C      0.34639      0.14174      0.14174      0.496 
C1       C      0.84639      0.64174      0.14174      0.496 
C1       C      0.84639      0.14174      0.64174      0.496 
C1       C      0.34639      0.64174      0.64174      0.496 
C2       C      0.33816      0.15196      0.15196     -0.07  
C2       C      0.83816      0.65196      0.15196     -0.07  
C2       C      0.83816      0.15196      0.65196     -0.07  
C2       C      0.33816      0.65196      0.65196     -0.07  
C1       C      0.3053       0.0734002    0.0734002    0.496 
C1       C      0.8053       0.5734       0.0734002    0.496 
C1       C      0.8053       0.0734002    0.5734       0.496 
C1       C      0.3053       0.5734       0.5734       0.496 
C2       C      0.31275      0.0834295    0.0834295   -0.07  
C2       C      0.81275      0.58343      0.0834295   -0.07  
C2       C      0.81275      0.0834295    0.58343     -0.07  
C2       C      0.31275      0.58343      0.58343     -0.07  
C1       C      0.34639      0.10826      0.10826      0.496 
C1       C      0.84639      0.60826      0.10826      0.496 
C1       C      0.84639      0.10826      0.60826      0.496 
C1       C      0.34639      0.60826      0.60826      0.496 
C2       C      0.33816      0.0980398    0.0980398   -0.07  
C2       C      0.83816      0.59804      0.0980398   -0.07  
C2       C      0.83816      0.0980398    0.59804     -0.07  
C2       C      0.33816      0.59804      0.59804     -0.07  
C1       C      0.9447       0.0734002    0.1766       0.496 
C1       C      0.4447       0.5734       0.1766       0.496 
C1       C      0.4447       0.0734002    0.6766       0.496 
C1       C      0.9447       0.5734       0.6766       0.496 
C2       C      0.93725      0.0834295    0.16657     -0.07  
C2       C      0.43725      0.58343      0.16657     -0.07  
C2       C      0.43725      0.0834295    0.66657     -0.07  
C2       C      0.93725      0.58343      0.66657     -0.07  
C1       C      0.90361      0.10826      0.14174      0.496 
C1       C      0.40361      0.60826      0.14174      0.496 
C1       C      0.40361      0.10826      0.64174      0.496 
C1       C      0.90361      0.60826      0.64174      0.496 
C2       C      0.91184      0.0980398    0.15196     -0.07  
C2       C      0.41184      0.59804      0.15196     -0.07  
C2       C      0.41184      0.0980398    0.65196     -0.07  
C2       C      0.91184      0.59804      0.65196     -0.07  
C1       C      0.1766       0.1766       0.3053       0.496 
C1       C      0.6766       0.6766       0.3053       0.496 
C1       C      0.6766       0.1766       0.8053       0.496 
C1       C      0.1766       0.6766       0.8053       0.496 
C2       C      0.16657      0.16657      0.31275     -0.07  
C2       C      0.66657      0.66657      0.31275     -0.07  
C2       C      0.66657      0.16657      0.81275     -0.07  
C2       C      0.16657      0.66657      0.81275     -0.07  
C1       C      0.14174      0.14174      0.34639      0.496 
C1       C      0.64174      0.64174      0.34639      0.496 
C1       C      0.64174      0.14174      0.84639      0.496 
C1       C      0.14174      0.64174      0.84639      0.496 
C2       C      0.15196      0.15196      0.33816     -0.07  
C2       C      0.65196      0.65196      0.33816     -0.07  
C2       C      0.65196      0.15196      0.83816     -0.07  
C2       C      0.15196      0.65196      0.83816     -0.07  
C1       C      0.6766       0.0734002    0.4447       0.496 
C1       C      0.1766       0.5734       0.4447       0.496 
C1       C      0.1766       0.0734002    0.9447       0.496 
C1       C      0.6766       0.5734       0.9447       0.496 
C2       C      0.66657      0.0834295    0.43725     -0.07  
C2       C      0.16657      0.58343      0.43725     -0.07  
C2       C      0.16657      0.0834295    0.93725     -0.07  
C2       C      0.66657      0.58343      0.93725     -0.07  
C1       C      0.64174      0.10826      0.40361      0.496 
C1       C      0.14174      0.60826      0.40361      0.496 
C1       C      0.14174      0.10826      0.90361      0.496 
C1       C      0.64174      0.60826      0.90361      0.496 
C2       C      0.65196      0.0980398    0.41184     -0.07  
C2       C      0.15196      0.59804      0.41184     -0.07  
C2       C      0.15196      0.0980398    0.91184     -0.07  
C2       C      0.65196      0.59804      0.91184     -0.07  
C1       C      0.5734       0.1766       0.4447       0.496 
C1       C      0.0734002    0.6766       0.4447       0.496 
C1       C      0.0734002    0.1766       0.9447       0.496 
C1       C      0.5734       0.6766       0.9447       0.496 
C2       C      0.58343      0.16657      0.43725     -0.07  
C2       C      0.0834295    0.66657      0.43725     -0.07  
C2       C      0.0834295    0.16657      0.93725     -0.07  
C2       C      0.58343      0.66657      0.93725     -0.07  
C1       C      0.60826      0.14174      0.40361      0.496 
C1       C      0.10826      0.64174      0.40361      0.496 
C1       C      0.10826      0.14174      0.90361      0.496 
C1       C      0.60826      0.64174      0.90361      0.496 
C2       C      0.59804      0.15196      0.41184     -0.07  
C2       C      0.0980398    0.65196      0.41184     -0.07  
C2       C      0.0980398    0.15196      0.91184     -0.07  
C2       C      0.59804      0.65196      0.91184     -0.07  
C1       C      0.0734002    0.0734002    0.3053       0.496 
C1       C      0.5734       0.5734       0.3053       0.496 
C1       C      0.5734       0.0734002    0.8053       0.496 
C1       C      0.0734002    0.5734       0.8053       0.496 
C2       C      0.0834295    0.0834295    0.31275     -0.07  
C2       C      0.58343      0.58343      0.31275     -0.07  
C2       C      0.58343      0.0834295    0.81275     -0.07  
C2       C      0.0834295    0.58343      0.81275     -0.07  
C1       C      0.10826      0.10826      0.34639      0.496 
C1       C      0.60826      0.60826      0.34639      0.496 
C1       C      0.60826      0.10826      0.84639      0.496 
C1       C      0.10826      0.60826      0.84639      0.496 
C2       C      0.0980398    0.0980398    0.33816     -0.07  
C2       C      0.59804      0.59804      0.33816     -0.07  
C2       C      0.59804      0.0980398    0.83816     -0.07  
C2       C      0.0980398    0.59804      0.83816     -0.07  


