data_MOF-177_ortho

_audit_creation_method RASPA-1.0
_audit_creation_date 2011-6-19
_audit_author_name 'David Dubbeldam'

_cell_length_a    64.2106
_cell_length_b    37.072
_cell_length_c    30.0333
_cell_angle_alpha 90
_cell_angle_beta  90
_cell_angle_gamma 90
_cell_volume      71491.7

_symmetry_cell_setting          triclinic
_symmetry_space_group_name_Hall 'P 1'
_symmetry_space_group_name_H-M  'P 1'
_symmetry_Int_Tables_number     1

_symmetry_equiv_pos_as_xyz 'x,y,z'

loop_
_atom_site_label
_atom_site_type_symbol
_atom_site_fract_x
_atom_site_fract_y
_atom_site_fract_z
_atom_site_charge
Zn1  Zn     0.93       0.226      0.1983     1.275  
Zn1  Zn     0.43       0.726      0.1983     1.275  
Zn1  Zn     0.92915    0.29545    0.2602     1.275  
Zn1  Zn     0.42915    0.79545    0.2602     1.275  
O2   O      0.0664     0.3052     0.8214    -0.6    
O2   O      0.5664     0.8052     0.8214    -0.6    
O2   O      0.06945    0.24905    0.8511    -0.6    
O2   O      0.56945    0.74905    0.8511    -0.6    
O2   O      0.12655    0.45885    0.227     -0.6    
O2   O      0.62655    0.95885    0.227     -0.6    
O2   O      0.1442     0.4709     0.1653    -0.6    
O2   O      0.6442     0.9709     0.1653    -0.6    
O2   O      0.9538     0.3065     0.2243    -0.6    
O2   O      0.4538     0.8065     0.2243    -0.6    
O2   O      0.95335    0.25805    0.1815    -0.6    
O2   O      0.45335    0.75805    0.1815    -0.6    
O2   O      0.9395     0.1791     0.2121    -0.6    
O2   O      0.4395     0.6791     0.2121    -0.6    
O2   O      0.9092     0.3337     0.2464    -0.6    
O2   O      0.4092     0.8337     0.2464    -0.6    
C6   C      0.0542     0.3342     0.0335     0      
C6   C      0.5542     0.8342     0.0335     0      
C7   C      0.0684     0.3565     0.0536    -0.15   
C7   C      0.5684     0.8565     0.0536    -0.15   
C6   C      0.06645    0.36845    0.098      0      
C6   C      0.56645    0.86845    0.098      0      
C7   C      0.0488     0.358      0.1206    -0.15   
C7   C      0.5488     0.858      0.1206    -0.15   
C6   C      0.03435    0.33555    0.1018     0      
C6   C      0.53435    0.83555    0.1018     0      
C7   C      0.0375     0.3232     0.0589    -0.15   
C7   C      0.5375     0.8232     0.0589    -0.15   
C5   C      0.0826     0.3908     0.1185     0      
C5   C      0.5826     0.8908     0.1185     0      
C4   C      0.10225    0.38965    0.107     -0.15   
C4   C      0.60225    0.88965    0.107     -0.15   
C3   C      0.1162     0.4114     0.128     -0.15   
C3   C      0.6162     0.9114     0.128     -0.15   
C2   C      0.11225    0.43195    0.1608     0.125  
C2   C      0.61225    0.93195    0.1608     0.125  
C3   C      0.0925     0.4347     0.1703    -0.15   
C3   C      0.5925     0.9347     0.1703    -0.15   
C4   C      0.07825    0.41345    0.1493    -0.15   
C4   C      0.57825    0.91345    0.1493    -0.15   
C5   C      0.0154     0.3246     0.1242     0      
C5   C      0.5154     0.8246     0.1242     0      
C4   C      0.00625    0.34145    0.1565    -0.15   
C4   C      0.50625    0.84145    0.1565    -0.15   
C3   C      0.98835    0.32995    0.1799    -0.15   
C3   C      0.48835    0.82995    0.1799    -0.15   
C2   C      0.97985    0.30235    0.1705     0.125  
C2   C      0.47985    0.80235    0.1705     0.125  
C3   C      0.9864     0.2849     0.1365    -0.15   
C3   C      0.4864     0.7849     0.1365    -0.15   
C4   C      0.004      0.2961     0.1137    -0.15   
C4   C      0.504      0.7961     0.1137    -0.15   
C5   C      0.05735    0.32325    0.9858     0      
C5   C      0.55735    0.82325    0.9858     0      
C4   C      0.0526     0.2878     0.9745    -0.15   
C4   C      0.5526     0.7878     0.9745    -0.15   
C3   C      0.06735    0.33115    0.9112    -0.15   
C3   C      0.56735    0.83115    0.9112    -0.15   
C2   C      0.0639     0.296      0.9004     0.125  
C2   C      0.5639     0.796      0.9004     0.125  
C4   C      0.06595    0.34135    0.9531    -0.15   
C4   C      0.56595    0.84135    0.9531    -0.15   
C1   C      0.0668     0.2836     0.854      0.475  
C1   C      0.5668     0.7836     0.854      0.475  
C1   C      0.12985    0.45455    0.1826     0.475  
C1   C      0.62985    0.95455    0.1826     0.475  
C1   C      0.9623     0.2908     0.1928     0.475  
C1   C      0.4623     0.7908     0.1928     0.475  
C4   C      0.9641     0.0769     0.2858    -0.15   
C4   C      0.4641     0.5769     0.2858    -0.15   
C3   C      0.95315    0.11025    0.2858    -0.15   
C3   C      0.45315    0.61025    0.2858    -0.15   
C4   C      0.8763     0.4303     0.2354    -0.15   
C4   C      0.3763     0.9303     0.2354    -0.15   
C3   C      0.8863     0.3987     0.2356    -0.15   
C3   C      0.3863     0.8987     0.2356    -0.15   
C3   C      0.056      0.2764     0.9291    -0.15   
C3   C      0.556      0.7764     0.9291    -0.15   
Zn1  Zn     0.422      0.282      0.1983     1.275  
Zn1  Zn     0.922      0.782      0.1983     1.275  
Zn1  Zn     0.3877     0.246      0.2602     1.275  
Zn1  Zn     0.8877     0.746      0.2602     1.275  
O2   O      0.3142     0.447      0.8214    -0.6    
O2   O      0.8142     0.947      0.8214    -0.6    
O2   O      0.34075    0.47965    0.8511    -0.6    
O2   O      0.84075    0.97965    0.8511    -0.6    
O2   O      0.2073     0.4604     0.227     -0.6    
O2   O      0.7073     0.9604     0.227     -0.6    
O2   O      0.19245    0.48085    0.1653    -0.6    
O2   O      0.69245    0.98085    0.1653    -0.6    
O2   O      0.36985    0.27745    0.2243    -0.6    
O2   O      0.86985    0.77745    0.2243    -0.6    
O2   O      0.3943     0.301      0.1815    -0.6    
O2   O      0.8943     0.801      0.1815    -0.6    
O2   O      0.4407     0.3197     0.2121    -0.6    
O2   O      0.9407     0.8197     0.2121    -0.6    
O2   O      0.37855    0.19695    0.2464    -0.6    
O2   O      0.87855    0.69695    0.2464    -0.6    
C6   C      0.3058     0.4142     0.0335     0      
C6   C      0.8058     0.9142     0.0335     0      
C7   C      0.28755    0.42435    0.0536    -0.15   
C7   C      0.78755    0.92435    0.0536    -0.15   
C6   C      0.28255    0.41545    0.098      0      
C6   C      0.78255    0.91545    0.098      0      
C7   C      0.2966     0.3942     0.1206    -0.15   
C7   C      0.7966     0.8942     0.1206    -0.15   
C6   C      0.31505    0.38375    0.1018     0      
C6   C      0.81505    0.88375    0.1018     0      
C7   C      0.31965    0.39465    0.0589    -0.15   
C7   C      0.81965    0.89465    0.0589    -0.15   
C5   C      0.2633     0.4285     0.1185     0      
C5   C      0.7633     0.9285     0.1185     0      
C4   C      0.25405    0.45855    0.107     -0.15   
C4   C      0.75405    0.95855    0.107     -0.15   
C3   C      0.2362     0.4686     0.128     -0.15   
C3   C      0.7362     0.9686     0.128     -0.15   
C2   C      0.2279     0.4524     0.1608     0.125  
C2   C      0.7279     0.9524     0.1608     0.125  
C3   C      0.2364     0.4214     0.1703    -0.15   
C3   C      0.7364     0.9214     0.1703    -0.15   
C4   C      0.25415    0.41065    0.1493    -0.15   
C4   C      0.75415    0.91065    0.1493    -0.15   
C5   C      0.33       0.3608     0.1242     0      
C5   C      0.83       0.8608     0.1242     0      
C4   C      0.32615    0.33865    0.1565    -0.15   
C4   C      0.82615    0.83865    0.1565    -0.15   
C3   C      0.34085    0.31755    0.1799    -0.15   
C3   C      0.84085    0.81755    0.1799    -0.15   
C2   C      0.3589     0.3186     0.1705     0.125  
C2   C      0.8589     0.8186     0.1705     0.125  
C3   C      0.36435    0.33715    0.1365    -0.15   
C3   C      0.86435    0.83715    0.1365    -0.15   
C4   C      0.34995    0.35795    0.1137    -0.15   
C4   C      0.84995    0.85795    0.1137    -0.15   
C5   C      0.3097     0.4244     0.9858     0      
C5   C      0.8097     0.9244     0.9858     0      
C4   C      0.3298     0.435      0.9745    -0.15   
C4   C      0.8298     0.935      0.9745    -0.15   
C3   C      0.30075    0.43545    0.9112    -0.15   
C3   C      0.80075    0.93545    0.9112    -0.15   
C2   C      0.32005    0.44785    0.9004     0.125  
C2   C      0.82005    0.94785    0.9004     0.125  
C4   C      0.29635    0.42825    0.9531    -0.15   
C4   C      0.79635    0.92825    0.9531    -0.15   
C1   C      0.3248     0.4584     0.854      0.475  
C1   C      0.8248     0.9584     0.854      0.475  
C1   C      0.2078     0.4675     0.1826     0.475  
C1   C      0.7078     0.9675     0.1826     0.475  
C1   C      0.37345    0.29805    0.1928     0.475  
C1   C      0.87345    0.79805    0.1928     0.475  
C4   C      0.4795     0.4077     0.2858    -0.15   
C4   C      0.9795     0.9077     0.2858    -0.15   
C3   C      0.4683     0.3746     0.2858    -0.15   
C3   C      0.9683     0.8746     0.2858    -0.15   
C4   C      0.3467     0.0993     0.2354    -0.15   
C4   C      0.8467     0.5993     0.2354    -0.15   
C3   C      0.3575     0.1301     0.2356    -0.15   
C3   C      0.8575     0.6301     0.2356    -0.15   
C3   C      0.3338     0.4458     0.9291    -0.15   
C3   C      0.8338     0.9458     0.9291    -0.15   
Zn1  Zn     0.648      0.492      0.1983     1.275  
Zn1  Zn     0.148      0.992      0.1983     1.275  
Zn1  Zn     0.68315    0.45855    0.2602     1.275  
Zn1  Zn     0.18315    0.95855    0.2602     1.275  
O2   O      0.6194     0.2478     0.8214    -0.6    
O2   O      0.1194     0.7478     0.8214    -0.6    
O2   O      0.5898     0.2713     0.8511    -0.6    
O2   O      0.0898     0.7713     0.8511    -0.6    
O2   O      0.66615    0.08075    0.227     -0.6    
O2   O      0.16615    0.58075    0.227     -0.6    
O2   O      0.66335    0.04825    0.1653    -0.6    
O2   O      0.16335    0.54825    0.1653    -0.6    
O2   O      0.67635    0.41605    0.2243    -0.6    
O2   O      0.17635    0.91605    0.2243    -0.6    
O2   O      0.65235    0.44095    0.1815    -0.6    
O2   O      0.15235    0.94095    0.1815    -0.6    
O2   O      0.1198     0          0.2121    -0.6    
O2   O      0.6198     0.5012     0.2121    -0.6    
O2   O      0.71225    0.46935    0.2464    -0.6    
O2   O      0.21225    0.96935    0.2464    -0.6    
C6   C      0.64       0.2516     0.0335     0      
C6   C      0.14       0.7516     0.0335     0      
C7   C      0.64405    0.21915    0.0536    -0.15   
C7   C      0.14405    0.71915    0.0536    -0.15   
C6   C      0.651      0.2161     0.098      0      
C6   C      0.151      0.7161     0.098      0      
C7   C      0.6546     0.2478     0.1206    -0.15   
C7   C      0.1546     0.7478     0.1206    -0.15   
C6   C      0.6506     0.2807     0.1018     0      
C6   C      0.1506     0.7807     0.1018     0      
C7   C      0.64285    0.28215    0.0589    -0.15   
C7   C      0.14285    0.78215    0.0589    -0.15   
C5   C      0.6541     0.1807     0.1185     0      
C5   C      0.1541     0.6807     0.1185     0      
C4   C      0.6437     0.1518     0.107     -0.15   
C4   C      0.1437     0.6518     0.107     -0.15   
C3   C      0.6476     0.12       0.128     -0.15   
C3   C      0.1476     0.62       0.128     -0.15   
C2   C      0.65985    0.11565    0.1608     0.125  
C2   C      0.15985    0.61565    0.1608     0.125  
C3   C      0.6711     0.1439     0.1703    -0.15   
C3   C      0.1711     0.6439     0.1703    -0.15   
C4   C      0.6676     0.1759     0.1493    -0.15   
C4   C      0.1676     0.6759     0.1493    -0.15   
C5   C      0.6546     0.3146     0.1242     0      
C5   C      0.1546     0.8146     0.1242     0      
C4   C      0.6676     0.3199     0.1565    -0.15   
C4   C      0.1676     0.8199     0.1565    -0.15   
C3   C      0.6708     0.3525     0.1799    -0.15   
C3   C      0.1708     0.8525     0.1799    -0.15   
C2   C      0.66125    0.37905    0.1705     0.125  
C2   C      0.16125    0.87905    0.1705     0.125  
C3   C      0.64925    0.37795    0.1365    -0.15   
C3   C      0.14925    0.87795    0.1365    -0.15   
C4   C      0.64605    0.34595    0.1137    -0.15   
C4   C      0.14605    0.84595    0.1137    -0.15   
C5   C      0.63295    0.25235    0.9858     0      
C5   C      0.13295    0.75235    0.9858     0      
C4   C      0.6176     0.2772     0.9745    -0.15   
C4   C      0.1176     0.7772     0.9745    -0.15   
C3   C      0.6319     0.2334     0.9112    -0.15   
C3   C      0.1319     0.7334     0.9112    -0.15   
C2   C      0.61605    0.25615    0.9004     0.125  
C2   C      0.11605    0.75615    0.9004     0.125  
C4   C      0.6377     0.2304     0.9531    -0.15   
C4   C      0.1377     0.7304     0.9531    -0.15   
C1   C      0.6084     0.258      0.854      0.475  
C1   C      0.1084     0.758      0.854      0.475  
C1   C      0.66235    0.07795    0.1826     0.475  
C1   C      0.16235    0.57795    0.1826     0.475  
C1   C      0.66425    0.41115    0.1928     0.475  
C1   C      0.16425    0.91115    0.1928     0.475  
C4   C      0.0564     0.0154     0.2858    -0.15   
C4   C      0.5564     0.5154     0.2858    -0.15   
C3   C      0.07855    0.01515    0.2858    -0.15   
C3   C      0.57855    0.51515    0.2858    -0.15   
C4   C      0.777      0.4704     0.2354    -0.15   
C4   C      0.277      0.9704     0.2354    -0.15   
C3   C      0.7562     0.4712     0.2356    -0.15   
C3   C      0.2562     0.9712     0.2356    -0.15   
C3   C      0.6102     0.2778     0.9291    -0.15   
C3   C      0.1102     0.7778     0.9291    -0.15   
Zn1  Zn     0.67035    0.04845    0.2779     1.275  
Zn1  Zn     0.17035    0.54845    0.2779     1.275  
Zn1  Zn     0.43       0.274      0.3017     1.275  
Zn1  Zn     0.93       0.774      0.3017     1.275  
Zn1  Zn     0.42915    0.20455    0.2398     1.275  
Zn1  Zn     0.92915    0.70455    0.2398     1.275  
O2   O      0.5664     0.1948     0.6786    -0.6    
O2   O      0.0664     0.6948     0.6786    -0.6    
O2   O      0.56945    0.25095    0.6489    -0.6    
O2   O      0.06945    0.75095    0.6489    -0.6    
O2   O      0.61925    0.01455    0.3007    -0.6    
O2   O      0.11925    0.51455    0.3007    -0.6    
O2   O      0.647      0.0648     0.3102    -0.6    
O2   O      0.147      0.5648     0.3102    -0.6    
O2   O      0.4538     0.1935     0.2757    -0.6    
O2   O      0.9538     0.6935     0.2757    -0.6    
O2   O      0.45335    0.24195    0.3185    -0.6    
O2   O      0.95335    0.74195    0.3185    -0.6    
O2   O      0.4395     0.3209     0.2879    -0.6    
O2   O      0.9395     0.8209     0.2879    -0.6    
O2   O      0.4092     0.1663     0.2536    -0.6    
O2   O      0.9092     0.6663     0.2536    -0.6    
C6   C      0.5542     0.1658     0.4665     0      
C6   C      0.0542     0.6658     0.4665     0      
C7   C      0.5684     0.1435     0.4464    -0.15   
C7   C      0.0684     0.6435     0.4464    -0.15   
C6   C      0.56645    0.13155    0.402      0      
C6   C      0.06645    0.63155    0.402      0      
C7   C      0.5488     0.142      0.3794    -0.15   
C7   C      0.0488     0.642      0.3794    -0.15   
C6   C      0.53435    0.16445    0.3982     0      
C6   C      0.03435    0.66445    0.3982     0      
C7   C      0.5375     0.1768     0.4411    -0.15   
C7   C      0.0375     0.6768     0.4411    -0.15   
C5   C      0.5826     0.1092     0.3815     0      
C5   C      0.0826     0.6092     0.3815     0      
C4   C      0.60225    0.11035    0.393     -0.15   
C4   C      0.10225    0.61035    0.393     -0.15   
C3   C      0.6162     0.0886     0.372     -0.15   
C3   C      0.1162     0.5886     0.372     -0.15   
C2   C      0.61225    0.06805    0.3392     0.125  
C2   C      0.11225    0.56805    0.3392     0.125  
C3   C      0.5925     0.0653     0.3297    -0.15   
C3   C      0.0925     0.5653     0.3297    -0.15   
C4   C      0.57825    0.08655    0.3507    -0.15   
C4   C      0.07825    0.58655    0.3507    -0.15   
C5   C      0.5154     0.1754     0.3758     0      
C5   C      0.0154     0.6754     0.3758     0      
C4   C      0.50625    0.15855    0.3435    -0.15   
C4   C      0.00625    0.65855    0.3435    -0.15   
C3   C      0.48835    0.17005    0.3201    -0.15   
C3   C      0.98835    0.67005    0.3201    -0.15   
C2   C      0.47985    0.19765    0.3295     0.125  
C2   C      0.97985    0.69765    0.3295     0.125  
C3   C      0.4864     0.2151     0.3635    -0.15   
C3   C      0.9864     0.7151     0.3635    -0.15   
C4   C      0.504      0.2039     0.3863    -0.15   
C4   C      0.004      0.7039     0.3863    -0.15   
C5   C      0.55735    0.17675    0.5142     0      
C5   C      0.05735    0.67675    0.5142     0      
C4   C      0.5526     0.2122     0.5255    -0.15   
C4   C      0.0526     0.7122     0.5255    -0.15   
C3   C      0.56735    0.16885    0.5888    -0.15   
C3   C      0.06735    0.66885    0.5888    -0.15   
C2   C      0.5639     0.204      0.5996     0.125  
C2   C      0.0639     0.704      0.5996     0.125  
C4   C      0.56595    0.15865    0.5469    -0.15   
C4   C      0.06595    0.65865    0.5469    -0.15   
C1   C      0.5668     0.2164     0.646      0.475  
C1   C      0.0668     0.7164     0.646      0.475  
C1   C      0.62985    0.04545    0.3174     0.475  
C1   C      0.12985    0.54545    0.3174     0.475  
C1   C      0.4623     0.2092     0.3072     0.475  
C1   C      0.9623     0.7092     0.3072     0.475  
C4   C      0.4641     0.4231     0.2142    -0.15   
C4   C      0.9641     0.9231     0.2142    -0.15   
C3   C      0.45315    0.38975    0.2142    -0.15   
C3   C      0.95315    0.88975    0.2142    -0.15   
C4   C      0.3763     0.0697     0.2646    -0.15   
C4   C      0.8763     0.5697     0.2646    -0.15   
C3   C      0.3863     0.1013     0.2644    -0.15   
C3   C      0.8863     0.6013     0.2644    -0.15   
C3   C      0.556      0.2236     0.5709    -0.15   
C3   C      0.056      0.7236     0.5709    -0.15   
Zn1  Zn     0.18905    0.47025    0.2779     1.275  
Zn1  Zn     0.68905    0.97025    0.2779     1.275  
Zn1  Zn     0.922      0.218      0.3017     1.275  
Zn1  Zn     0.422      0.718      0.3017     1.275  
Zn1  Zn     0.8877     0.254      0.2398     1.275  
Zn1  Zn     0.3877     0.754      0.2398     1.275  
O2   O      0.8142     0.053      0.6786    -0.6    
O2   O      0.3142     0.553      0.6786    -0.6    
O2   O      0.84075    0.02035    0.6489    -0.6    
O2   O      0.34075    0.52035    0.6489    -0.6    
O2   O      0.69765    0.06385    0.3007    -0.6    
O2   O      0.19765    0.56385    0.3007    -0.6    
O2   O      0.2089     0.4971     0.3102    -0.6    
O2   O      0.7089     0.9971     0.3102    -0.6    
O2   O      0.86985    0.22255    0.2757    -0.6    
O2   O      0.36985    0.72255    0.2757    -0.6    
O2   O      0.8943     0.199      0.3185    -0.6    
O2   O      0.3943     0.699      0.3185    -0.6    
O2   O      0.9407     0.1803     0.2879    -0.6    
O2   O      0.4407     0.6803     0.2879    -0.6    
O2   O      0.87855    0.30305    0.2536    -0.6    
O2   O      0.37855    0.80305    0.2536    -0.6    
C6   C      0.8058     0.0858     0.4665     0      
C6   C      0.3058     0.5858     0.4665     0      
C7   C      0.78755    0.07565    0.4464    -0.15   
C7   C      0.28755    0.57565    0.4464    -0.15   
C6   C      0.78255    0.08455    0.402      0      
C6   C      0.28255    0.58455    0.402      0      
C7   C      0.7966     0.1058     0.3794    -0.15   
C7   C      0.2966     0.6058     0.3794    -0.15   
C6   C      0.81505    0.11625    0.3982     0      
C6   C      0.31505    0.61625    0.3982     0      
C7   C      0.81965    0.10535    0.4411    -0.15   
C7   C      0.31965    0.60535    0.4411    -0.15   
C5   C      0.7633     0.0715     0.3815     0      
C5   C      0.2633     0.5715     0.3815     0      
C4   C      0.75405    0.04145    0.393     -0.15   
C4   C      0.25405    0.54145    0.393     -0.15   
C3   C      0.7362     0.0314     0.372     -0.15   
C3   C      0.2362     0.5314     0.372     -0.15   
C2   C      0.7279     0.0476     0.3392     0.125  
C2   C      0.2279     0.5476     0.3392     0.125  
C3   C      0.7364     0.0786     0.3297    -0.15   
C3   C      0.2364     0.5786     0.3297    -0.15   
C4   C      0.75415    0.08935    0.3507    -0.15   
C4   C      0.25415    0.58935    0.3507    -0.15   
C5   C      0.83       0.1392     0.3758     0      
C5   C      0.33       0.6392     0.3758     0      
C4   C      0.82615    0.16135    0.3435    -0.15   
C4   C      0.32615    0.66135    0.3435    -0.15   
C3   C      0.84085    0.18245    0.3201    -0.15   
C3   C      0.34085    0.68245    0.3201    -0.15   
C2   C      0.8589     0.1814     0.3295     0.125  
C2   C      0.3589     0.6814     0.3295     0.125  
C3   C      0.86435    0.16285    0.3635    -0.15   
C3   C      0.36435    0.66285    0.3635    -0.15   
C4   C      0.84995    0.14205    0.3863    -0.15   
C4   C      0.34995    0.64205    0.3863    -0.15   
C5   C      0.8097     0.0756     0.5142     0      
C5   C      0.3097     0.5756     0.5142     0      
C4   C      0.8298     0.065      0.5255    -0.15   
C4   C      0.3298     0.565      0.5255    -0.15   
C3   C      0.80075    0.06455    0.5888    -0.15   
C3   C      0.30075    0.56455    0.5888    -0.15   
C2   C      0.82005    0.05215    0.5996     0.125  
C2   C      0.32005    0.55215    0.5996     0.125  
C4   C      0.79635    0.07175    0.5469    -0.15   
C4   C      0.29635    0.57175    0.5469    -0.15   
C1   C      0.8248     0.0416     0.646      0.475  
C1   C      0.3248     0.5416     0.646      0.475  
C1   C      0.7078     0.0325     0.3174     0.475  
C1   C      0.2078     0.5325     0.3174     0.475  
C1   C      0.87345    0.20195    0.3072     0.475  
C1   C      0.37345    0.70195    0.3072     0.475  
C4   C      0.9795     0.0923     0.2142    -0.15   
C4   C      0.4795     0.5923     0.2142    -0.15   
C3   C      0.9683     0.1254     0.2142    -0.15   
C3   C      0.4683     0.6254     0.2142    -0.15   
C4   C      0.8467     0.4007     0.2646    -0.15   
C4   C      0.3467     0.9007     0.2646    -0.15   
C3   C      0.8575     0.3699     0.2644    -0.15   
C3   C      0.3575     0.8699     0.2644    -0.15   
C3   C      0.8338     0.0542     0.5709    -0.15   
C3   C      0.3338     0.5542     0.5709    -0.15   
Zn1  Zn     0.1406     0.4813     0.2779     1.275  
Zn1  Zn     0.6406     0.9813     0.2779     1.275  
Zn1  Zn     0.148      0.008      0.3017     1.275  
Zn1  Zn     0.648      0.508      0.3017     1.275  
Zn1  Zn     0.18315    0.04145    0.2398     1.275  
Zn1  Zn     0.68315    0.54145    0.2398     1.275  
O2   O      0.1194     0.2522     0.6786    -0.6    
O2   O      0.6194     0.7522     0.6786    -0.6    
O2   O      0.0898     0.2287     0.6489    -0.6    
O2   O      0.5898     0.7287     0.6489    -0.6    
O2   O      0.1831     0.4216     0.3007    -0.6    
O2   O      0.6831     0.9216     0.3007    -0.6    
O2   O      0.1441     0.4381     0.3102    -0.6    
O2   O      0.6441     0.9381     0.3102    -0.6    
O2   O      0.17635    0.08395    0.2757    -0.6    
O2   O      0.67635    0.58395    0.2757    -0.6    
O2   O      0.15235    0.05905    0.3185    -0.6    
O2   O      0.65235    0.55905    0.3185    -0.6    
O2   O      0.6198     0.4988     0.2879    -0.6    
O2   O      0.1198     0.9988     0.2879    -0.6    
O2   O      0.21225    0.03065    0.2536    -0.6    
O2   O      0.71225    0.53065    0.2536    -0.6    
C6   C      0.14       0.2484     0.4665     0      
C6   C      0.64       0.7484     0.4665     0      
C7   C      0.14405    0.28085    0.4464    -0.15   
C7   C      0.64405    0.78085    0.4464    -0.15   
C6   C      0.151      0.2839     0.402      0      
C6   C      0.651      0.7839     0.402      0      
C7   C      0.1546     0.2522     0.3794    -0.15   
C7   C      0.6546     0.7522     0.3794    -0.15   
C6   C      0.1506     0.2193     0.3982     0      
C6   C      0.6506     0.7193     0.3982     0      
C7   C      0.14285    0.21785    0.4411    -0.15   
C7   C      0.64285    0.71785    0.4411    -0.15   
C5   C      0.1541     0.3193     0.3815     0      
C5   C      0.6541     0.8193     0.3815     0      
C4   C      0.1437     0.3482     0.393     -0.15   
C4   C      0.6437     0.8482     0.393     -0.15   
C3   C      0.1476     0.38       0.372     -0.15   
C3   C      0.6476     0.88       0.372     -0.15   
C2   C      0.15985    0.38435    0.3392     0.125  
C2   C      0.65985    0.88435    0.3392     0.125  
C3   C      0.1711     0.3561     0.3297    -0.15   
C3   C      0.6711     0.8561     0.3297    -0.15   
C4   C      0.1676     0.3241     0.3507    -0.15   
C4   C      0.6676     0.8241     0.3507    -0.15   
C5   C      0.1546     0.1854     0.3758     0      
C5   C      0.6546     0.6854     0.3758     0      
C4   C      0.1676     0.1801     0.3435    -0.15   
C4   C      0.6676     0.6801     0.3435    -0.15   
C3   C      0.1708     0.1475     0.3201    -0.15   
C3   C      0.6708     0.6475     0.3201    -0.15   
C2   C      0.16125    0.12095    0.3295     0.125  
C2   C      0.66125    0.62095    0.3295     0.125  
C3   C      0.14925    0.12205    0.3635    -0.15   
C3   C      0.64925    0.62205    0.3635    -0.15   
C4   C      0.14605    0.15405    0.3863    -0.15   
C4   C      0.64605    0.65405    0.3863    -0.15   
C5   C      0.13295    0.24765    0.5142     0      
C5   C      0.63295    0.74765    0.5142     0      
C4   C      0.1176     0.2228     0.5255    -0.15   
C4   C      0.6176     0.7228     0.5255    -0.15   
C3   C      0.1319     0.2666     0.5888    -0.15   
C3   C      0.6319     0.7666     0.5888    -0.15   
C2   C      0.11605    0.24385    0.5996     0.125  
C2   C      0.61605    0.74385    0.5996     0.125  
C4   C      0.1377     0.2696     0.5469    -0.15   
C4   C      0.6377     0.7696     0.5469    -0.15   
C1   C      0.1084     0.242      0.646      0.475  
C1   C      0.6084     0.742      0.646      0.475  
C1   C      0.16235    0.42205    0.3174     0.475  
C1   C      0.66235    0.92205    0.3174     0.475  
C1   C      0.16425    0.08885    0.3072     0.475  
C1   C      0.66425    0.58885    0.3072     0.475  
C4   C      0.5564     0.4846     0.2142    -0.15   
C4   C      0.0564     0.9846     0.2142    -0.15   
C3   C      0.57855    0.48485    0.2142    -0.15   
C3   C      0.07855    0.98485    0.2142    -0.15   
C4   C      0.277      0.0296     0.2646    -0.15   
C4   C      0.777      0.5296     0.2646    -0.15   
C3   C      0.2562     0.0288     0.2644    -0.15   
C3   C      0.7562     0.5288     0.2644    -0.15   
C3   C      0.1102     0.2222     0.5709    -0.15   
C3   C      0.6102     0.7222     0.5709    -0.15   
Zn1  Zn     0.32965    0.04845    0.7779     1.275  
Zn1  Zn     0.82965    0.54845    0.7779     1.275  
Zn1  Zn     0.57       0.274      0.8017     1.275  
Zn1  Zn     0.07       0.774      0.8017     1.275  
Zn1  Zn     0.57085    0.20455    0.7398     1.275  
Zn1  Zn     0.07085    0.70455    0.7398     1.275  
O2   O      0.4336     0.1948     0.1786    -0.6    
O2   O      0.9336     0.6948     0.1786    -0.6    
O2   O      0.43055    0.25095    0.1489    -0.6    
O2   O      0.93055    0.75095    0.1489    -0.6    
O2   O      0.38075    0.01455    0.8007    -0.6    
O2   O      0.88075    0.51455    0.8007    -0.6    
O2   O      0.353      0.0648     0.8102    -0.6    
O2   O      0.853      0.5648     0.8102    -0.6    
O2   O      0.5462     0.1935     0.7757    -0.6    
O2   O      0.0462     0.6935     0.7757    -0.6    
O2   O      0.54665    0.24195    0.8185    -0.6    
O2   O      0.04665    0.74195    0.8185    -0.6    
O2   O      0.5605     0.3209     0.7879    -0.6    
O2   O      0.0605     0.8209     0.7879    -0.6    
O2   O      0.5908     0.1663     0.7536    -0.6    
O2   O      0.0908     0.6663     0.7536    -0.6    
C6   C      0.4458     0.1658     0.9665     0      
C6   C      0.9458     0.6658     0.9665     0      
C7   C      0.4316     0.1435     0.9464    -0.15   
C7   C      0.9316     0.6435     0.9464    -0.15   
C6   C      0.43355    0.13155    0.902      0      
C6   C      0.93355    0.63155    0.902      0      
C7   C      0.4512     0.142      0.8794    -0.15   
C7   C      0.9512     0.642      0.8794    -0.15   
C6   C      0.46565    0.16445    0.8982     0      
C6   C      0.96565    0.66445    0.8982     0      
C7   C      0.4625     0.1768     0.9411    -0.15   
C7   C      0.9625     0.6768     0.9411    -0.15   
C5   C      0.4174     0.1092     0.8815     0      
C5   C      0.9174     0.6092     0.8815     0      
C4   C      0.39775    0.11035    0.893     -0.15   
C4   C      0.89775    0.61035    0.893     -0.15   
C3   C      0.3838     0.0886     0.872     -0.15   
C3   C      0.8838     0.5886     0.872     -0.15   
C2   C      0.38775    0.06805    0.8392     0.125  
C2   C      0.88775    0.56805    0.8392     0.125  
C3   C      0.4075     0.0653     0.8297    -0.15   
C3   C      0.9075     0.5653     0.8297    -0.15   
C4   C      0.42175    0.08655    0.8507    -0.15   
C4   C      0.92175    0.58655    0.8507    -0.15   
C5   C      0.4846     0.1754     0.8758     0      
C5   C      0.9846     0.6754     0.8758     0      
C4   C      0.49375    0.15855    0.8435    -0.15   
C4   C      0.99375    0.65855    0.8435    -0.15   
C3   C      0.51165    0.17005    0.8201    -0.15   
C3   C      0.01165    0.67005    0.8201    -0.15   
C2   C      0.52015    0.19765    0.8295     0.125  
C2   C      0.02015    0.69765    0.8295     0.125  
C3   C      0.5136     0.2151     0.8635    -0.15   
C3   C      0.0136     0.7151     0.8635    -0.15   
C4   C      0.496      0.2039     0.8863    -0.15   
C4   C      0.996      0.7039     0.8863    -0.15   
C5   C      0.44265    0.17675    0.0142     0      
C5   C      0.94265    0.67675    0.0142     0      
C4   C      0.4474     0.2122     0.0255    -0.15   
C4   C      0.9474     0.7122     0.0255    -0.15   
C3   C      0.43265    0.16885    0.0888    -0.15   
C3   C      0.93265    0.66885    0.0888    -0.15   
C2   C      0.4361     0.204      0.0996     0.125  
C2   C      0.9361     0.704      0.0996     0.125  
C4   C      0.43405    0.15865    0.0469    -0.15   
C4   C      0.93405    0.65865    0.0469    -0.15   
C1   C      0.4332     0.2164     0.146      0.475  
C1   C      0.9332     0.7164     0.146      0.475  
C1   C      0.37015    0.04545    0.8174     0.475  
C1   C      0.87015    0.54545    0.8174     0.475  
C1   C      0.5377     0.2092     0.8072     0.475  
C1   C      0.0377     0.7092     0.8072     0.475  
C4   C      0.5359     0.4231     0.7142    -0.15   
C4   C      0.0359     0.9231     0.7142    -0.15   
C3   C      0.54685    0.38975    0.7142    -0.15   
C3   C      0.04685    0.88975    0.7142    -0.15   
C4   C      0.6237     0.0697     0.7646    -0.15   
C4   C      0.1237     0.5697     0.7646    -0.15   
C3   C      0.6137     0.1013     0.7644    -0.15   
C3   C      0.1137     0.6013     0.7644    -0.15   
C3   C      0.444      0.2236     0.0709    -0.15   
C3   C      0.944      0.7236     0.0709    -0.15   
Zn1  Zn     0.81095    0.47025    0.7779     1.275  
Zn1  Zn     0.31095    0.97025    0.7779     1.275  
Zn1  Zn     0.078      0.218      0.8017     1.275  
Zn1  Zn     0.578      0.718      0.8017     1.275  
Zn1  Zn     0.1123     0.254      0.7398     1.275  
Zn1  Zn     0.6123     0.754      0.7398     1.275  
O2   O      0.1858     0.053      0.1786    -0.6    
O2   O      0.6858     0.553      0.1786    -0.6    
O2   O      0.15925    0.02035    0.1489    -0.6    
O2   O      0.65925    0.52035    0.1489    -0.6    
O2   O      0.30235    0.06385    0.8007    -0.6    
O2   O      0.80235    0.56385    0.8007    -0.6    
O2   O      0.7911     0.4971     0.8102    -0.6    
O2   O      0.2911     0.9971     0.8102    -0.6    
O2   O      0.13015    0.22255    0.7757    -0.6    
O2   O      0.63015    0.72255    0.7757    -0.6    
O2   O      0.1057     0.199      0.8185    -0.6    
O2   O      0.6057     0.699      0.8185    -0.6    
O2   O      0.0593     0.1803     0.7879    -0.6    
O2   O      0.5593     0.6803     0.7879    -0.6    
O2   O      0.12145    0.30305    0.7536    -0.6    
O2   O      0.62145    0.80305    0.7536    -0.6    
C6   C      0.1942     0.0858     0.9665     0      
C6   C      0.6942     0.5858     0.9665     0      
C7   C      0.21245    0.07565    0.9464    -0.15   
C7   C      0.71245    0.57565    0.9464    -0.15   
C6   C      0.21745    0.08455    0.902      0      
C6   C      0.71745    0.58455    0.902      0      
C7   C      0.2034     0.1058     0.8794    -0.15   
C7   C      0.7034     0.6058     0.8794    -0.15   
C6   C      0.18495    0.11625    0.8982     0      
C6   C      0.68495    0.61625    0.8982     0      
C7   C      0.18035    0.10535    0.9411    -0.15   
C7   C      0.68035    0.60535    0.9411    -0.15   
C5   C      0.2367     0.0715     0.8815     0      
C5   C      0.7367     0.5715     0.8815     0      
C4   C      0.24595    0.04145    0.893     -0.15   
C4   C      0.74595    0.54145    0.893     -0.15   
C3   C      0.2638     0.0314     0.872     -0.15   
C3   C      0.7638     0.5314     0.872     -0.15   
C2   C      0.2721     0.0476     0.8392     0.125  
C2   C      0.7721     0.5476     0.8392     0.125  
C3   C      0.2636     0.0786     0.8297    -0.15   
C3   C      0.7636     0.5786     0.8297    -0.15   
C4   C      0.24585    0.08935    0.8507    -0.15   
C4   C      0.74585    0.58935    0.8507    -0.15   
C5   C      0.17       0.1392     0.8758     0      
C5   C      0.67       0.6392     0.8758     0      
C4   C      0.17385    0.16135    0.8435    -0.15   
C4   C      0.67385    0.66135    0.8435    -0.15   
C3   C      0.15915    0.18245    0.8201    -0.15   
C3   C      0.65915    0.68245    0.8201    -0.15   
C2   C      0.1411     0.1814     0.8295     0.125  
C2   C      0.6411     0.6814     0.8295     0.125  
C3   C      0.13565    0.16285    0.8635    -0.15   
C3   C      0.63565    0.66285    0.8635    -0.15   
C4   C      0.15005    0.14205    0.8863    -0.15   
C4   C      0.65005    0.64205    0.8863    -0.15   
C5   C      0.1903     0.0756     0.0142     0      
C5   C      0.6903     0.5756     0.0142     0      
C4   C      0.1702     0.065      0.0255    -0.15   
C4   C      0.6702     0.565      0.0255    -0.15   
C3   C      0.19925    0.06455    0.0888    -0.15   
C3   C      0.69925    0.56455    0.0888    -0.15   
C2   C      0.17995    0.05215    0.0996     0.125  
C2   C      0.67995    0.55215    0.0996     0.125  
C4   C      0.20365    0.07175    0.0469    -0.15   
C4   C      0.70365    0.57175    0.0469    -0.15   
C1   C      0.1752     0.0416     0.146      0.475  
C1   C      0.6752     0.5416     0.146      0.475  
C1   C      0.2922     0.0325     0.8174     0.475  
C1   C      0.7922     0.5325     0.8174     0.475  
C1   C      0.12655    0.20195    0.8072     0.475  
C1   C      0.62655    0.70195    0.8072     0.475  
C4   C      0.0205     0.0923     0.7142    -0.15   
C4   C      0.5205     0.5923     0.7142    -0.15   
C3   C      0.0317     0.1254     0.7142    -0.15   
C3   C      0.5317     0.6254     0.7142    -0.15   
C4   C      0.1533     0.4007     0.7646    -0.15   
C4   C      0.6533     0.9007     0.7646    -0.15   
C3   C      0.1425     0.3699     0.7644    -0.15   
C3   C      0.6425     0.8699     0.7644    -0.15   
C3   C      0.1662     0.0542     0.0709    -0.15   
C3   C      0.6662     0.5542     0.0709    -0.15   
Zn1  Zn     0.8594     0.4813     0.7779     1.275  
Zn1  Zn     0.3594     0.9813     0.7779     1.275  
Zn1  Zn     0.852      0.008      0.8017     1.275  
Zn1  Zn     0.352      0.508      0.8017     1.275  
Zn1  Zn     0.81685    0.04145    0.7398     1.275  
Zn1  Zn     0.31685    0.54145    0.7398     1.275  
O2   O      0.8806     0.2522     0.1786    -0.6    
O2   O      0.3806     0.7522     0.1786    -0.6    
O2   O      0.9102     0.2287     0.1489    -0.6    
O2   O      0.4102     0.7287     0.1489    -0.6    
O2   O      0.8169     0.4216     0.8007    -0.6    
O2   O      0.3169     0.9216     0.8007    -0.6    
O2   O      0.8559     0.4381     0.8102    -0.6    
O2   O      0.3559     0.9381     0.8102    -0.6    
O2   O      0.82365    0.08395    0.7757    -0.6    
O2   O      0.32365    0.58395    0.7757    -0.6    
O2   O      0.84765    0.05905    0.8185    -0.6    
O2   O      0.34765    0.55905    0.8185    -0.6    
O2   O      0.3802     0.4988     0.7879    -0.6    
O2   O      0.8802     0.9988     0.7879    -0.6    
O2   O      0.78775    0.03065    0.7536    -0.6    
O2   O      0.28775    0.53065    0.7536    -0.6    
C6   C      0.86       0.2484     0.9665     0      
C6   C      0.36       0.7484     0.9665     0      
C7   C      0.85595    0.28085    0.9464    -0.15   
C7   C      0.35595    0.78085    0.9464    -0.15   
C6   C      0.849      0.2839     0.902      0      
C6   C      0.349      0.7839     0.902      0      
C7   C      0.8454     0.2522     0.8794    -0.15   
C7   C      0.3454     0.7522     0.8794    -0.15   
C6   C      0.8494     0.2193     0.8982     0      
C6   C      0.3494     0.7193     0.8982     0      
C7   C      0.85715    0.21785    0.9411    -0.15   
C7   C      0.35715    0.71785    0.9411    -0.15   
C5   C      0.8459     0.3193     0.8815     0      
C5   C      0.3459     0.8193     0.8815     0      
C4   C      0.8563     0.3482     0.893     -0.15   
C4   C      0.3563     0.8482     0.893     -0.15   
C3   C      0.8524     0.38       0.872     -0.15   
C3   C      0.3524     0.88       0.872     -0.15   
C2   C      0.84015    0.38435    0.8392     0.125  
C2   C      0.34015    0.88435    0.8392     0.125  
C3   C      0.8289     0.3561     0.8297    -0.15   
C3   C      0.3289     0.8561     0.8297    -0.15   
C4   C      0.8324     0.3241     0.8507    -0.15   
C4   C      0.3324     0.8241     0.8507    -0.15   
C5   C      0.8454     0.1854     0.8758     0      
C5   C      0.3454     0.6854     0.8758     0      
C4   C      0.8324     0.1801     0.8435    -0.15   
C4   C      0.3324     0.6801     0.8435    -0.15   
C3   C      0.8292     0.1475     0.8201    -0.15   
C3   C      0.3292     0.6475     0.8201    -0.15   
C2   C      0.83875    0.12095    0.8295     0.125  
C2   C      0.33875    0.62095    0.8295     0.125  
C3   C      0.85075    0.12205    0.8635    -0.15   
C3   C      0.35075    0.62205    0.8635    -0.15   
C4   C      0.85395    0.15405    0.8863    -0.15   
C4   C      0.35395    0.65405    0.8863    -0.15   
C5   C      0.86705    0.24765    0.0142     0      
C5   C      0.36705    0.74765    0.0142     0      
C4   C      0.8824     0.2228     0.0255    -0.15   
C4   C      0.3824     0.7228     0.0255    -0.15   
C3   C      0.8681     0.2666     0.0888    -0.15   
C3   C      0.3681     0.7666     0.0888    -0.15   
C2   C      0.88395    0.24385    0.0996     0.125  
C2   C      0.38395    0.74385    0.0996     0.125  
C4   C      0.8623     0.2696     0.0469    -0.15   
C4   C      0.3623     0.7696     0.0469    -0.15   
C1   C      0.8916     0.242      0.146      0.475  
C1   C      0.3916     0.742      0.146      0.475  
C1   C      0.83765    0.42205    0.8174     0.475  
C1   C      0.33765    0.92205    0.8174     0.475  
C1   C      0.83575    0.08885    0.8072     0.475  
C1   C      0.33575    0.58885    0.8072     0.475  
C4   C      0.4436     0.4846     0.7142    -0.15   
C4   C      0.9436     0.9846     0.7142    -0.15   
C3   C      0.42145    0.48485    0.7142    -0.15   
C3   C      0.92145    0.98485    0.7142    -0.15   
C4   C      0.723      0.0296     0.7646    -0.15   
C4   C      0.223      0.5296     0.7646    -0.15   
C3   C      0.7438     0.0288     0.7644    -0.15   
C3   C      0.2438     0.5288     0.7644    -0.15   
C3   C      0.8898     0.2222     0.0709    -0.15   
C3   C      0.3898     0.7222     0.0709    -0.15   
Zn1  Zn     0.07       0.226      0.6983     1.275  
Zn1  Zn     0.57       0.726      0.6983     1.275  
Zn1  Zn     0.07085    0.29545    0.7602     1.275  
Zn1  Zn     0.57085    0.79545    0.7602     1.275  
O2   O      0.9336     0.3052     0.3214    -0.6    
O2   O      0.4336     0.8052     0.3214    -0.6    
O2   O      0.93055    0.24905    0.3511    -0.6    
O2   O      0.43055    0.74905    0.3511    -0.6    
O2   O      0.87345    0.45885    0.727     -0.6    
O2   O      0.37345    0.95885    0.727     -0.6    
O2   O      0.8558     0.4709     0.6653    -0.6    
O2   O      0.3558     0.9709     0.6653    -0.6    
O2   O      0.0462     0.3065     0.7243    -0.6    
O2   O      0.5462     0.8065     0.7243    -0.6    
O2   O      0.04665    0.25805    0.6815    -0.6    
O2   O      0.54665    0.75805    0.6815    -0.6    
O2   O      0.0605     0.1791     0.7121    -0.6    
O2   O      0.5605     0.6791     0.7121    -0.6    
O2   O      0.0908     0.3337     0.7464    -0.6    
O2   O      0.5908     0.8337     0.7464    -0.6    
C6   C      0.9458     0.3342     0.5335     0      
C6   C      0.4458     0.8342     0.5335     0      
C7   C      0.9316     0.3565     0.5536    -0.15   
C7   C      0.4316     0.8565     0.5536    -0.15   
C6   C      0.93355    0.36845    0.598      0      
C6   C      0.43355    0.86845    0.598      0      
C7   C      0.9512     0.358      0.6206    -0.15   
C7   C      0.4512     0.858      0.6206    -0.15   
C6   C      0.96565    0.33555    0.6018     0      
C6   C      0.46565    0.83555    0.6018     0      
C7   C      0.9625     0.3232     0.5589    -0.15   
C7   C      0.4625     0.8232     0.5589    -0.15   
C5   C      0.9174     0.3908     0.6185     0      
C5   C      0.4174     0.8908     0.6185     0      
C4   C      0.89775    0.38965    0.607     -0.15   
C4   C      0.39775    0.88965    0.607     -0.15   
C3   C      0.8838     0.4114     0.628     -0.15   
C3   C      0.3838     0.9114     0.628     -0.15   
C2   C      0.88775    0.43195    0.6608     0.125  
C2   C      0.38775    0.93195    0.6608     0.125  
C3   C      0.9075     0.4347     0.6703    -0.15   
C3   C      0.4075     0.9347     0.6703    -0.15   
C4   C      0.92175    0.41345    0.6493    -0.15   
C4   C      0.42175    0.91345    0.6493    -0.15   
C5   C      0.9846     0.3246     0.6242     0      
C5   C      0.4846     0.8246     0.6242     0      
C4   C      0.99375    0.34145    0.6565    -0.15   
C4   C      0.49375    0.84145    0.6565    -0.15   
C3   C      0.01165    0.32995    0.6799    -0.15   
C3   C      0.51165    0.82995    0.6799    -0.15   
C2   C      0.02015    0.30235    0.6705     0.125  
C2   C      0.52015    0.80235    0.6705     0.125  
C3   C      0.0136     0.2849     0.6365    -0.15   
C3   C      0.5136     0.7849     0.6365    -0.15   
C4   C      0.996      0.2961     0.6137    -0.15   
C4   C      0.496      0.7961     0.6137    -0.15   
C5   C      0.94265    0.32325    0.4858     0      
C5   C      0.44265    0.82325    0.4858     0      
C4   C      0.9474     0.2878     0.4745    -0.15   
C4   C      0.4474     0.7878     0.4745    -0.15   
C3   C      0.93265    0.33115    0.4112    -0.15   
C3   C      0.43265    0.83115    0.4112    -0.15   
C2   C      0.9361     0.296      0.4004     0.125  
C2   C      0.4361     0.796      0.4004     0.125  
C4   C      0.93405    0.34135    0.4531    -0.15   
C4   C      0.43405    0.84135    0.4531    -0.15   
C1   C      0.9332     0.2836     0.354      0.475  
C1   C      0.4332     0.7836     0.354      0.475  
C1   C      0.87015    0.45455    0.6826     0.475  
C1   C      0.37015    0.95455    0.6826     0.475  
C1   C      0.0377     0.2908     0.6928     0.475  
C1   C      0.5377     0.7908     0.6928     0.475  
C4   C      0.0359     0.0769     0.7858    -0.15   
C4   C      0.5359     0.5769     0.7858    -0.15   
C3   C      0.04685    0.11025    0.7858    -0.15   
C3   C      0.54685    0.61025    0.7858    -0.15   
C4   C      0.1237     0.4303     0.7354    -0.15   
C4   C      0.6237     0.9303     0.7354    -0.15   
C3   C      0.1137     0.3987     0.7356    -0.15   
C3   C      0.6137     0.8987     0.7356    -0.15   
C3   C      0.944      0.2764     0.4291    -0.15   
C3   C      0.444      0.7764     0.4291    -0.15   
Zn1  Zn     0.578      0.282      0.6983     1.275  
Zn1  Zn     0.078      0.782      0.6983     1.275  
Zn1  Zn     0.6123     0.246      0.7602     1.275  
Zn1  Zn     0.1123     0.746      0.7602     1.275  
O2   O      0.6858     0.447      0.3214    -0.6    
O2   O      0.1858     0.947      0.3214    -0.6    
O2   O      0.65925    0.47965    0.3511    -0.6    
O2   O      0.15925    0.97965    0.3511    -0.6    
O2   O      0.7927     0.4604     0.727     -0.6    
O2   O      0.2927     0.9604     0.727     -0.6    
O2   O      0.80755    0.48085    0.6653    -0.6    
O2   O      0.30755    0.98085    0.6653    -0.6    
O2   O      0.63015    0.27745    0.7243    -0.6    
O2   O      0.13015    0.77745    0.7243    -0.6    
O2   O      0.6057     0.301      0.6815    -0.6    
O2   O      0.1057     0.801      0.6815    -0.6    
O2   O      0.5593     0.3197     0.7121    -0.6    
O2   O      0.0593     0.8197     0.7121    -0.6    
O2   O      0.62145    0.19695    0.7464    -0.6    
O2   O      0.12145    0.69695    0.7464    -0.6    
C6   C      0.6942     0.4142     0.5335     0      
C6   C      0.1942     0.9142     0.5335     0      
C7   C      0.71245    0.42435    0.5536    -0.15   
C7   C      0.21245    0.92435    0.5536    -0.15   
C6   C      0.71745    0.41545    0.598      0      
C6   C      0.21745    0.91545    0.598      0      
C7   C      0.7034     0.3942     0.6206    -0.15   
C7   C      0.2034     0.8942     0.6206    -0.15   
C6   C      0.68495    0.38375    0.6018     0      
C6   C      0.18495    0.88375    0.6018     0      
C7   C      0.68035    0.39465    0.5589    -0.15   
C7   C      0.18035    0.89465    0.5589    -0.15   
C5   C      0.7367     0.4285     0.6185     0      
C5   C      0.2367     0.9285     0.6185     0      
C4   C      0.74595    0.45855    0.607     -0.15   
C4   C      0.24595    0.95855    0.607     -0.15   
C3   C      0.7638     0.4686     0.628     -0.15   
C3   C      0.2638     0.9686     0.628     -0.15   
C2   C      0.7721     0.4524     0.6608     0.125  
C2   C      0.2721     0.9524     0.6608     0.125  
C3   C      0.7636     0.4214     0.6703    -0.15   
C3   C      0.2636     0.9214     0.6703    -0.15   
C4   C      0.74585    0.41065    0.6493    -0.15   
C4   C      0.24585    0.91065    0.6493    -0.15   
C5   C      0.67       0.3608     0.6242     0      
C5   C      0.17       0.8608     0.6242     0      
C4   C      0.67385    0.33865    0.6565    -0.15   
C4   C      0.17385    0.83865    0.6565    -0.15   
C3   C      0.65915    0.31755    0.6799    -0.15   
C3   C      0.15915    0.81755    0.6799    -0.15   
C2   C      0.6411     0.3186     0.6705     0.125  
C2   C      0.1411     0.8186     0.6705     0.125  
C3   C      0.63565    0.33715    0.6365    -0.15   
C3   C      0.13565    0.83715    0.6365    -0.15   
C4   C      0.65005    0.35795    0.6137    -0.15   
C4   C      0.15005    0.85795    0.6137    -0.15   
C5   C      0.6903     0.4244     0.4858     0      
C5   C      0.1903     0.9244     0.4858     0      
C4   C      0.6702     0.435      0.4745    -0.15   
C4   C      0.1702     0.935      0.4745    -0.15   
C3   C      0.69925    0.43545    0.4112    -0.15   
C3   C      0.19925    0.93545    0.4112    -0.15   
C2   C      0.67995    0.44785    0.4004     0.125  
C2   C      0.17995    0.94785    0.4004     0.125  
C4   C      0.70365    0.42825    0.4531    -0.15   
C4   C      0.20365    0.92825    0.4531    -0.15   
C1   C      0.6752     0.4584     0.354      0.475  
C1   C      0.1752     0.9584     0.354      0.475  
C1   C      0.7922     0.4675     0.6826     0.475  
C1   C      0.2922     0.9675     0.6826     0.475  
C1   C      0.62655    0.29805    0.6928     0.475  
C1   C      0.12655    0.79805    0.6928     0.475  
C4   C      0.5205     0.4077     0.7858    -0.15   
C4   C      0.0205     0.9077     0.7858    -0.15   
C3   C      0.5317     0.3746     0.7858    -0.15   
C3   C      0.0317     0.8746     0.7858    -0.15   
C4   C      0.6533     0.0993     0.7354    -0.15   
C4   C      0.1533     0.5993     0.7354    -0.15   
C3   C      0.6425     0.1301     0.7356    -0.15   
C3   C      0.1425     0.6301     0.7356    -0.15   
C3   C      0.6662     0.4458     0.4291    -0.15   
C3   C      0.1662     0.9458     0.4291    -0.15   
Zn1  Zn     0.352      0.492      0.6983     1.275  
Zn1  Zn     0.852      0.992      0.6983     1.275  
Zn1  Zn     0.31685    0.45855    0.7602     1.275  
Zn1  Zn     0.81685    0.95855    0.7602     1.275  
O2   O      0.3806     0.2478     0.3214    -0.6    
O2   O      0.8806     0.7478     0.3214    -0.6    
O2   O      0.4102     0.2713     0.3511    -0.6    
O2   O      0.9102     0.7713     0.3511    -0.6    
O2   O      0.33385    0.08075    0.727     -0.6    
O2   O      0.83385    0.58075    0.727     -0.6    
O2   O      0.33665    0.04825    0.6653    -0.6    
O2   O      0.83665    0.54825    0.6653    -0.6    
O2   O      0.32365    0.41605    0.7243    -0.6    
O2   O      0.82365    0.91605    0.7243    -0.6    
O2   O      0.34765    0.44095    0.6815    -0.6    
O2   O      0.84765    0.94095    0.6815    -0.6    
O2   O      0.8802     0          0.7121    -0.6    
O2   O      0.3802     0.5012     0.7121    -0.6    
O2   O      0.28775    0.46935    0.7464    -0.6    
O2   O      0.78775    0.96935    0.7464    -0.6    
C6   C      0.36       0.2516     0.5335     0      
C6   C      0.86       0.7516     0.5335     0      
C7   C      0.35595    0.21915    0.5536    -0.15   
C7   C      0.85595    0.71915    0.5536    -0.15   
C6   C      0.349      0.2161     0.598      0      
C6   C      0.849      0.7161     0.598      0      
C7   C      0.3454     0.2478     0.6206    -0.15   
C7   C      0.8454     0.7478     0.6206    -0.15   
C6   C      0.3494     0.2807     0.6018     0      
C6   C      0.8494     0.7807     0.6018     0      
C7   C      0.35715    0.28215    0.5589    -0.15   
C7   C      0.85715    0.78215    0.5589    -0.15   
C5   C      0.3459     0.1807     0.6185     0      
C5   C      0.8459     0.6807     0.6185     0      
C4   C      0.3563     0.1518     0.607     -0.15   
C4   C      0.8563     0.6518     0.607     -0.15   
C3   C      0.3524     0.12       0.628     -0.15   
C3   C      0.8524     0.62       0.628     -0.15   
C2   C      0.34015    0.11565    0.6608     0.125  
C2   C      0.84015    0.61565    0.6608     0.125  
C3   C      0.3289     0.1439     0.6703    -0.15   
C3   C      0.8289     0.6439     0.6703    -0.15   
C4   C      0.3324     0.1759     0.6493    -0.15   
C4   C      0.8324     0.6759     0.6493    -0.15   
C5   C      0.3454     0.3146     0.6242     0      
C5   C      0.8454     0.8146     0.6242     0      
C4   C      0.3324     0.3199     0.6565    -0.15   
C4   C      0.8324     0.8199     0.6565    -0.15   
C3   C      0.3292     0.3525     0.6799    -0.15   
C3   C      0.8292     0.8525     0.6799    -0.15   
C2   C      0.33875    0.37905    0.6705     0.125  
C2   C      0.83875    0.87905    0.6705     0.125  
C3   C      0.35075    0.37795    0.6365    -0.15   
C3   C      0.85075    0.87795    0.6365    -0.15   
C4   C      0.35395    0.34595    0.6137    -0.15   
C4   C      0.85395    0.84595    0.6137    -0.15   
C5   C      0.36705    0.25235    0.4858     0      
C5   C      0.86705    0.75235    0.4858     0      
C4   C      0.3824     0.2772     0.4745    -0.15   
C4   C      0.8824     0.7772     0.4745    -0.15   
C3   C      0.3681     0.2334     0.4112    -0.15   
C3   C      0.8681     0.7334     0.4112    -0.15   
C2   C      0.38395    0.25615    0.4004     0.125  
C2   C      0.88395    0.75615    0.4004     0.125  
C4   C      0.3623     0.2304     0.4531    -0.15   
C4   C      0.8623     0.7304     0.4531    -0.15   
C1   C      0.3916     0.258      0.354      0.475  
C1   C      0.8916     0.758      0.354      0.475  
C1   C      0.33765    0.07795    0.6826     0.475  
C1   C      0.83765    0.57795    0.6826     0.475  
C1   C      0.33575    0.41115    0.6928     0.475  
C1   C      0.83575    0.91115    0.6928     0.475  
C4   C      0.9436     0.0154     0.7858    -0.15   
C4   C      0.4436     0.5154     0.7858    -0.15   
C3   C      0.92145    0.01515    0.7858    -0.15   
C3   C      0.42145    0.51515    0.7858    -0.15   
C4   C      0.223      0.4704     0.7354    -0.15   
C4   C      0.723      0.9704     0.7354    -0.15   
C3   C      0.2438     0.4712     0.7356    -0.15   
C3   C      0.7438     0.9712     0.7356    -0.15   
C3   C      0.3898     0.2778     0.4291    -0.15   
C3   C      0.8898     0.7778     0.4291    -0.15   
Zn1  Zn     0.66667    0          0.1904     1.275  
Zn1  Zn     0.16667    0.5        0.1904     1.275  
Zn1  Zn     0.33333    0          0.6904     1.275  
Zn1  Zn     0.83333    0.5        0.6904     1.275  
O1   O      0.91677    0.24967    0.25      -1.5    
O1   O      0.41677    0.74967    0.25      -1.5    
C6   C      0.98917    0.03247    0.25       0      
C6   C      0.48917    0.53247    0.25       0      
C5   C      0.97732    0.06803    0.25       0      
C5   C      0.47732    0.56802    0.25       0      
C2   C      0.9556     0.1332     0.25       0.125  
C2   C      0.4556     0.6332     0.25       0.125  
C1   C      0.94477    0.16567    0.25       0.475  
C1   C      0.44477    0.66567    0.25       0.475  
C6   C      0.84402    0.46792    0.25       0      
C6   C      0.34402    0.96793    0.25       0      
C5   C      0.8561     0.4317     0.25       0      
C5   C      0.3561     0.9317     0.25       0      
C2   C      0.87747    0.36757    0.25       0.125  
C2   C      0.37747    0.86757    0.25       0.125  
C1   C      0.88922    0.33232    0.25       0.475  
C1   C      0.38922    0.83232    0.25       0.475  
O1   O      0.41677    0.25032    0.25      -1.5    
O1   O      0.91677    0.75033    0.25      -1.5    
C6   C      0.48917    0.46753    0.25       0      
C6   C      0.98917    0.96752    0.25       0      
C5   C      0.47732    0.43198    0.25       0      
C5   C      0.97732    0.93197    0.25       0      
C2   C      0.4556     0.3668     0.25       0.125  
C2   C      0.9556     0.8668     0.25       0.125  
C1   C      0.44477    0.33433    0.25       0.475  
C1   C      0.94477    0.83432    0.25       0.475  
C6   C      0.34402    0.03207    0.25       0      
C6   C      0.84402    0.53207    0.25       0      
C5   C      0.3561     0.0683     0.25       0      
C5   C      0.8561     0.5683     0.25       0      
C2   C      0.37747    0.13242    0.25       0.125  
C2   C      0.87747    0.63243    0.25       0.125  
C1   C      0.38922    0.16768    0.25       0.475  
C1   C      0.88922    0.66768    0.25       0.475  
O1   O      0.16645    0          0.25      -1.5    
O1   O      0.66645    0.5        0.25      -1.5    
C6   C      0.02165    0          0.25       0      
C6   C      0.52165    0.5        0.25       0      
C5   C      0.04535    0          0.25       0      
C5   C      0.54535    0.5        0.25       0      
C2   C      0.0888     0          0.25       0.125  
C2   C      0.5888     0.5        0.25       0.125  
C1   C      0.11045    0          0.25       0.475  
C1   C      0.61045    0.5        0.25       0.475  
C6   C      0.31195    0          0.25       0      
C6   C      0.81195    0.5        0.25       0      
C5   C      0.2878     0          0.25       0      
C5   C      0.7878     0.5        0.25       0      
C2   C      0.24505    0          0.25       0.125  
C2   C      0.74505    0.5        0.25       0.125  
C1   C      0.22155    0          0.25       0.475  
C1   C      0.72155    0.5        0.25       0.475  
O1   O      0.58322    0.25032    0.75      -1.5    
O1   O      0.08322    0.75033    0.75      -1.5    
C6   C      0.51082    0.46753    0.75       0      
C6   C      0.01082    0.96752    0.75       0      
C5   C      0.52267    0.43198    0.75       0      
C5   C      0.02267    0.93197    0.75       0      
C2   C      0.5444     0.3668     0.75       0.125  
C2   C      0.0444     0.8668     0.75       0.125  
C1   C      0.55522    0.33433    0.75       0.475  
C1   C      0.05522    0.83432    0.75       0.475  
C6   C      0.65597    0.03207    0.75       0      
C6   C      0.15598    0.53207    0.75       0      
C5   C      0.6439     0.0683     0.75       0      
C5   C      0.1439     0.5683     0.75       0      
C2   C      0.62252    0.13242    0.75       0.125  
C2   C      0.12252    0.63243    0.75       0.125  
C1   C      0.61077    0.16768    0.75       0.475  
C1   C      0.11077    0.66768    0.75       0.475  
O1   O      0.08322    0.24967    0.75      -1.5    
O1   O      0.58322    0.74967    0.75      -1.5    
C6   C      0.01082    0.03247    0.75       0      
C6   C      0.51082    0.53247    0.75       0      
C5   C      0.02267    0.06803    0.75       0      
C5   C      0.52267    0.56802    0.75       0      
C2   C      0.0444     0.1332     0.75       0.125  
C2   C      0.5444     0.6332     0.75       0.125  
C1   C      0.05522    0.16567    0.75       0.475  
C1   C      0.55522    0.66567    0.75       0.475  
C6   C      0.15598    0.46792    0.75       0      
C6   C      0.65597    0.96793    0.75       0      
C5   C      0.1439     0.4317     0.75       0      
C5   C      0.6439     0.9317     0.75       0      
C2   C      0.12252    0.36757    0.75       0.125  
C2   C      0.62252    0.86757    0.75       0.125  
C1   C      0.11077    0.33232    0.75       0.475  
C1   C      0.61077    0.83232    0.75       0.475  
O1   O      0.83355    0          0.75      -1.5    
O1   O      0.33355    0.5        0.75      -1.5    
C6   C      0.97835    0          0.75       0      
C6   C      0.47835    0.5        0.75       0      
C5   C      0.95465    0          0.75       0      
C5   C      0.45465    0.5        0.75       0      
C2   C      0.9112     0          0.75       0.125  
C2   C      0.4112     0.5        0.75       0.125  
C1   C      0.88955    0          0.75       0.475  
C1   C      0.38955    0.5        0.75       0.475  
C6   C      0.68805    0          0.75       0      
C6   C      0.18805    0.5        0.75       0      
C5   C      0.7122     0          0.75       0      
C5   C      0.2122     0.5        0.75       0      
C2   C      0.75495    0          0.75       0.125  
C2   C      0.25495    0.5        0.75       0.125  
C1   C      0.77845    0          0.75       0.475  
C1   C      0.27845    0.5        0.75       0.475  
O1   O      0.66667    0          0.25      -1.5    
O1   O      0.16667    0.5        0.25      -1.5    
O1   O      0.33333    0          0.75      -1.5    
O1   O      0.83333    0.5        0.75      -1.5    
C7   C      0.0107     0.0321     0.25      -0.15   
C7   C      0.5107     0.5321     0.25      -0.15   
C7   C      0.9786     0          0.25      -0.15   
C7   C      0.4786     0.5        0.25      -0.15   
C7   C      0.5107     0.4679     0.25      -0.15   
C7   C      0.0107     0.9679     0.25      -0.15   
C7   C      0.4893     0.4679     0.75      -0.15   
C7   C      0.9893     0.9679     0.75      -0.15   
C7   C      0.0214     0          0.75      -0.15   
C7   C      0.5214     0.5        0.75      -0.15   
C7   C      0.9893     0.0321     0.75      -0.15   
C7   C      0.4893     0.5321     0.75      -0.15   
C7   C      0.8224     0.4672     0.25      -0.15   
C7   C      0.3224     0.9672     0.25      -0.15   
C7   C      0.3552     0          0.25      -0.15   
C7   C      0.8552     0.5        0.25      -0.15   
C7   C      0.3224     0.0328     0.25      -0.15   
C7   C      0.8224     0.5328     0.25      -0.15   
C7   C      0.6776     0.0328     0.75      -0.15   
C7   C      0.1776     0.5328     0.75      -0.15   
C7   C      0.6448     0          0.75      -0.15   
C7   C      0.1448     0.5        0.75      -0.15   
C7   C      0.1776     0.4672     0.75      -0.15   
C7   C      0.6776     0.9672     0.75      -0.15   
H3   H      0.08261    0.36627    0.0343     0.15   
H3   H      0.58261    0.86627    0.0343     0.15   
H3   H      0.04592    0.36809    0.15593    0.15   
H3   H      0.54592    0.86808    0.15593    0.15   
H3   H      0.02573    0.30328    0.04466    0.15   
H3   H      0.52573    0.80328    0.04466    0.15   
H2   H      0.10757    0.37051    0.07955    0.15   
H2   H      0.60757    0.87051    0.07955    0.15   
H1   H      0.13309    0.41219    0.11638    0.15   
H1   H      0.63309    0.91219    0.11638    0.15   
H1   H      0.08705    0.45499    0.19634    0.15   
H1   H      0.58705    0.95499    0.19634    0.15   
H2   H      0.06146    0.41687    0.1609     0.15   
H2   H      0.56146    0.91687    0.1609     0.15   
H2   H      0.01261    0.36841    0.16864    0.15   
H2   H      0.51261    0.86841    0.16864    0.15   
H1   H      0.98184    0.34711    0.20817    0.15   
H1   H      0.48184    0.84711    0.20817    0.15   
H1   H      0.97772    0.25983    0.12467    0.15   
H1   H      0.47772    0.75983    0.12467    0.15   
H2   H      0.00845    0.27871    0.08388    0.15   
H2   H      0.50845    0.77871    0.08388    0.15   
H2   H      0.0462     0.2686     0          0.15   
H2   H      0.5462     0.76859    0          0.15   
H1   H      0.07141    0.35148    0.88408    0.15   
H1   H      0.57141    0.85148    0.88408    0.15   
H2   H      0.0732     0.3689     0.95971    0.15   
H2   H      0.5732     0.8689     0.95971    0.15   
H2   H      0.96217    0.05734    0.3148     0.15   
H2   H      0.46217    0.55734    0.3148     0.15   
H1   H      0.94261    0.11756    0.31498    0.15   
H1   H      0.44261    0.61756    0.31498    0.15   
H2   H      0.88435    0.45589    0.22329    0.15   
H2   H      0.38435    0.95589    0.22329    0.15   
H1   H      0.90306    0.39703    0.22326    0.15   
H1   H      0.40306    0.89703    0.22326    0.15   
H1   H      0.05132    0.24807    0.91824    0.15   
H1   H      0.55132    0.74807    0.91824    0.15   
H3   H      0.27556    0.44078    0.0343     0.15   
H3   H      0.77556    0.94078    0.0343     0.15   
H3   H      0.29299    0.38484    0.15593    0.15   
H3   H      0.79299    0.88484    0.15593    0.15   
H3   H      0.33549    0.38696    0.04466    0.15   
H3   H      0.83549    0.88696    0.04466    0.15   
H2   H      0.26096    0.4761     0.07955    0.15   
H2   H      0.76096    0.9761     0.07955    0.15   
H1   H      0.22735    0.49354    0.11638    0.15   
H1   H      0.72735    0.99354    0.11638    0.15   
H1   H      0.22897    0.40309    0.19634    0.15   
H1   H      0.72897    0.90308    0.19634    0.15   
H2   H      0.26083    0.38376    0.1609     0.15   
H2   H      0.76083    0.88376    0.1609     0.15   
H2   H      0.30948    0.33472    0.16864    0.15   
H2   H      0.80948    0.83472    0.16864    0.15   
H1   H      0.33552    0.29922    0.20817    0.15   
H1   H      0.83552    0.79922    0.20817    0.15   
H1   H      0.38122    0.33667    0.12467    0.15   
H1   H      0.88122    0.83667    0.12467    0.15   
H2   H      0.35642    0.37332    0.08388    0.15   
H2   H      0.85642    0.87332    0.08388    0.15   
H2   H      0.3426     0.435      0          0.15   
H2   H      0.8426     0.935      0          0.15   
H1   H      0.28856    0.43137    0.88408    0.15   
H1   H      0.78855    0.93137    0.88408    0.15   
H2   H      0.27895    0.42535    0.95971    0.15   
H2   H      0.77895    0.92535    0.95971    0.15   
H2   H      0.49024    0.41458    0.3148     0.15   
H2   H      0.99024    0.91458    0.3148     0.15   
H1   H      0.46991    0.35513    0.31498    0.15   
H1   H      0.96991    0.85513    0.31498    0.15   
H2   H      0.32987    0.09858    0.22329    0.15   
H2   H      0.82987    0.59858    0.22329    0.15   
H1   H      0.34995    0.15608    0.22326    0.15   
H1   H      0.84995    0.65608    0.22326    0.15   
H1   H      0.3503     0.45295    0.91824    0.15   
H1   H      0.8503     0.95295    0.91824    0.15   
H3   H      0.64183    0.19295    0.0343     0.15   
H3   H      0.14183    0.69295    0.0343     0.15   
H3   H      0.66108    0.24707    0.15593    0.15   
H3   H      0.16108    0.74707    0.15593    0.15   
H3   H      0.63877    0.30977    0.04466    0.15   
H3   H      0.13877    0.80977    0.04466    0.15   
H2   H      0.63147    0.15339    0.07955    0.15   
H2   H      0.13147    0.65339    0.07955    0.15   
H1   H      0.63955    0.09426    0.11638    0.15   
H1   H      0.13955    0.59426    0.11638    0.15   
H1   H      0.68397    0.14192    0.19634    0.15   
H1   H      0.18397    0.64192    0.19634    0.15   
H2   H      0.6777     0.19937    0.1609     0.15   
H2   H      0.1777     0.69938    0.1609     0.15   
H2   H      0.67789    0.29687    0.16864    0.15   
H2   H      0.17789    0.79687    0.16864    0.15   
H1   H      0.68263    0.35368    0.20817    0.15   
H1   H      0.18263    0.85368    0.20817    0.15   
H1   H      0.64105    0.4035     0.12467    0.15   
H1   H      0.14105    0.9035     0.12467    0.15   
H2   H      0.63513    0.34797    0.08388    0.15   
H2   H      0.13513    0.84797    0.08388    0.15   
H2   H      0.6112     0.2964     0          0.15   
H2   H      0.1112     0.7964     0          0.15   
H1   H      0.64003    0.21714    0.88408    0.15   
H1   H      0.14003    0.71715    0.88408    0.15   
H2   H      0.64785    0.20575    0.95971    0.15   
H2   H      0.14785    0.70575    0.95971    0.15   
H2   H      0.04758    0.02808    0.3148     0.15   
H2   H      0.54758    0.52808    0.3148     0.15   
H1   H      0.08747    0.02731    0.31498    0.15   
H1   H      0.58747    0.5273     0.31498    0.15   
H2   H      0.78576    0.44552    0.22329    0.15   
H2   H      0.28576    0.94552    0.22329    0.15   
H1   H      0.74698    0.44689    0.22326    0.15   
H1   H      0.24698    0.94689    0.22326    0.15   
H1   H      0.59837    0.29898    0.91824    0.15   
H1   H      0.09838    0.79898    0.91824    0.15   
H3   H      0.58261    0.13373    0.4657     0.15   
H3   H      0.08261    0.63373    0.4657     0.15   
H3   H      0.54592    0.13192    0.34407    0.15   
H3   H      0.04592    0.63191    0.34407    0.15   
H3   H      0.52573    0.19672    0.45534    0.15   
H3   H      0.02573    0.69672    0.45534    0.15   
H2   H      0.60757    0.12949    0.42045    0.15   
H2   H      0.10757    0.62949    0.42045    0.15   
H1   H      0.63309    0.08781    0.38362    0.15   
H1   H      0.13309    0.58781    0.38362    0.15   
H1   H      0.58705    0.045      0.30366    0.15   
H1   H      0.08705    0.545      0.30366    0.15   
H2   H      0.56146    0.08313    0.3391     0.15   
H2   H      0.06146    0.58313    0.3391     0.15   
H2   H      0.51261    0.13158    0.33136    0.15   
H2   H      0.01262    0.63159    0.33136    0.15   
H1   H      0.48184    0.15289    0.29183    0.15   
H1   H      0.98184    0.65289    0.29183    0.15   
H1   H      0.47772    0.24017    0.37533    0.15   
H1   H      0.97772    0.74017    0.37533    0.15   
H2   H      0.50845    0.22129    0.41612    0.15   
H2   H      0.00845    0.72129    0.41612    0.15   
H2   H      0.5462     0.2314     0.4992     0.15   
H2   H      0.04621    0.73141    0.4992     0.15   
H1   H      0.57141    0.14852    0.61592    0.15   
H1   H      0.07141    0.64852    0.61592    0.15   
H2   H      0.5732     0.1311     0.54029    0.15   
H2   H      0.0732     0.6311     0.54029    0.15   
H2   H      0.46217    0.44266    0.1852     0.15   
H2   H      0.96217    0.94266    0.1852     0.15   
H1   H      0.44261    0.38244    0.18502    0.15   
H1   H      0.94261    0.88244    0.18502    0.15   
H2   H      0.38435    0.04411    0.27671    0.15   
H2   H      0.88435    0.54411    0.27671    0.15   
H1   H      0.40306    0.10297    0.27674    0.15   
H1   H      0.90306    0.60297    0.27674    0.15   
H1   H      0.55132    0.25193    0.58176    0.15   
H1   H      0.05132    0.75193    0.58176    0.15   
H3   H      0.77556    0.05922    0.4657     0.15   
H3   H      0.27556    0.55922    0.4657     0.15   
H3   H      0.79299    0.11515    0.34407    0.15   
H3   H      0.29299    0.61516    0.34407    0.15   
H3   H      0.83549    0.11304    0.45534    0.15   
H3   H      0.33549    0.61304    0.45534    0.15   
H2   H      0.76096    0.0239     0.42045    0.15   
H2   H      0.26096    0.5239     0.42045    0.15   
H1   H      0.72735    0.00646    0.38362    0.15   
H1   H      0.22735    0.50646    0.38362    0.15   
H1   H      0.72897    0.09692    0.30366    0.15   
H1   H      0.22897    0.59691    0.30366    0.15   
H2   H      0.76083    0.11625    0.3391     0.15   
H2   H      0.26083    0.61624    0.3391     0.15   
H2   H      0.80948    0.16528    0.33136    0.15   
H2   H      0.30948    0.66528    0.33136    0.15   
H1   H      0.83552    0.20078    0.29183    0.15   
H1   H      0.33552    0.70078    0.29183    0.15   
H1   H      0.88122    0.16333    0.37533    0.15   
H1   H      0.38122    0.66333    0.37533    0.15   
H2   H      0.85642    0.12668    0.41612    0.15   
H2   H      0.35642    0.62668    0.41612    0.15   
H2   H      0.8426     0.06499    0.4992     0.15   
H2   H      0.3426     0.56499    0.4992     0.15   
H1   H      0.78855    0.06862    0.61592    0.15   
H1   H      0.28856    0.56862    0.61592    0.15   
H2   H      0.77895    0.07465    0.54029    0.15   
H2   H      0.27895    0.57465    0.54029    0.15   
H2   H      0.99024    0.08542    0.1852     0.15   
H2   H      0.49024    0.58541    0.1852     0.15   
H1   H      0.96991    0.14486    0.18502    0.15   
H1   H      0.46991    0.64487    0.18502    0.15   
H2   H      0.82987    0.40142    0.27671    0.15   
H2   H      0.32987    0.90142    0.27671    0.15   
H1   H      0.84995    0.34392    0.27674    0.15   
H1   H      0.34995    0.84392    0.27674    0.15   
H1   H      0.8503     0.04706    0.58176    0.15   
H1   H      0.3503     0.54705    0.58176    0.15   
H3   H      0.14183    0.30705    0.4657     0.15   
H3   H      0.64183    0.80705    0.4657     0.15   
H3   H      0.16108    0.25293    0.34407    0.15   
H3   H      0.66108    0.75293    0.34407    0.15   
H3   H      0.13877    0.19024    0.45534    0.15   
H3   H      0.63877    0.69023    0.45534    0.15   
H2   H      0.13147    0.34661    0.42045    0.15   
H2   H      0.63147    0.84661    0.42045    0.15   
H1   H      0.13955    0.40574    0.38362    0.15   
H1   H      0.63955    0.90574    0.38362    0.15   
H1   H      0.18397    0.35808    0.30366    0.15   
H1   H      0.68397    0.85808    0.30366    0.15   
H2   H      0.1777     0.30062    0.3391     0.15   
H2   H      0.6777     0.80062    0.3391     0.15   
H2   H      0.17789    0.20313    0.33136    0.15   
H2   H      0.67789    0.70313    0.33136    0.15   
H1   H      0.18263    0.14632    0.29183    0.15   
H1   H      0.68263    0.64632    0.29183    0.15   
H1   H      0.14105    0.0965     0.37533    0.15   
H1   H      0.64105    0.5965     0.37533    0.15   
H2   H      0.13513    0.15203    0.41612    0.15   
H2   H      0.63513    0.65203    0.41612    0.15   
H2   H      0.1112     0.2036     0.4992     0.15   
H2   H      0.6112     0.7036     0.4992     0.15   
H1   H      0.14003    0.28285    0.61592    0.15   
H1   H      0.64003    0.78285    0.61592    0.15   
H2   H      0.14785    0.29425    0.54029    0.15   
H2   H      0.64785    0.79425    0.54029    0.15   
H2   H      0.54758    0.47192    0.1852     0.15   
H2   H      0.04758    0.97192    0.1852     0.15   
H1   H      0.58747    0.4727     0.18502    0.15   
H1   H      0.08747    0.9727     0.18502    0.15   
H2   H      0.28576    0.05447    0.27671    0.15   
H2   H      0.78576    0.55448    0.27671    0.15   
H1   H      0.24698    0.05311    0.27674    0.15   
H1   H      0.74698    0.55311    0.27674    0.15   
H1   H      0.09837    0.20101    0.58176    0.15   
H1   H      0.59837    0.70102    0.58176    0.15   
H3   H      0.41739    0.13373    0.9657     0.15   
H3   H      0.91739    0.63373    0.9657     0.15   
H3   H      0.45407    0.13192    0.84407    0.15   
H3   H      0.95407    0.63191    0.84407    0.15   
H3   H      0.47427    0.19672    0.95534    0.15   
H3   H      0.97427    0.69672    0.95534    0.15   
H2   H      0.39243    0.12949    0.92045    0.15   
H2   H      0.89243    0.62949    0.92045    0.15   
H1   H      0.3669     0.08781    0.88362    0.15   
H1   H      0.8669     0.58781    0.88362    0.15   
H1   H      0.41294    0.045      0.80366    0.15   
H1   H      0.91294    0.545      0.80366    0.15   
H2   H      0.43854    0.08313    0.8391     0.15   
H2   H      0.93854    0.58313    0.8391     0.15   
H2   H      0.48738    0.13158    0.83136    0.15   
H2   H      0.98738    0.63159    0.83136    0.15   
H1   H      0.51815    0.15289    0.79183    0.15   
H1   H      0.01816    0.65289    0.79183    0.15   
H1   H      0.52227    0.24017    0.87533    0.15   
H1   H      0.02227    0.74017    0.87533    0.15   
H2   H      0.49155    0.22129    0.91612    0.15   
H2   H      0.99155    0.72129    0.91612    0.15   
H2   H      0.45379    0.2314     0.9992     0.15   
H2   H      0.95379    0.73141    0.9992     0.15   
H1   H      0.42859    0.14852    0.11592    0.15   
H1   H      0.92859    0.64852    0.11592    0.15   
H2   H      0.4268     0.1311     0.04029    0.15   
H2   H      0.9268     0.6311     0.04029    0.15   
H2   H      0.53783    0.44266    0.6852     0.15   
H2   H      0.03783    0.94266    0.6852     0.15   
H1   H      0.55739    0.38244    0.68502    0.15   
H1   H      0.05739    0.88244    0.68502    0.15   
H2   H      0.61565    0.04411    0.77671    0.15   
H2   H      0.11565    0.54411    0.77671    0.15   
H1   H      0.59694    0.10297    0.77674    0.15   
H1   H      0.09694    0.60297    0.77674    0.15   
H1   H      0.44868    0.25193    0.08176    0.15   
H1   H      0.94868    0.75193    0.08176    0.15   
H3   H      0.22444    0.05922    0.9657     0.15   
H3   H      0.72444    0.55922    0.9657     0.15   
H3   H      0.207      0.11515    0.84407    0.15   
H3   H      0.707      0.61516    0.84407    0.15   
H3   H      0.1645     0.11304    0.95534    0.15   
H3   H      0.6645     0.61304    0.95534    0.15   
H2   H      0.23904    0.0239     0.92045    0.15   
H2   H      0.73904    0.5239     0.92045    0.15   
H1   H      0.27264    0.00646    0.88362    0.15   
H1   H      0.77264    0.50646    0.88362    0.15   
H1   H      0.27102    0.09692    0.80366    0.15   
H1   H      0.77102    0.59691    0.80366    0.15   
H2   H      0.23916    0.11625    0.8391     0.15   
H2   H      0.73916    0.61624    0.8391     0.15   
H2   H      0.19052    0.16528    0.83136    0.15   
H2   H      0.69052    0.66528    0.83136    0.15   
H1   H      0.16448    0.20078    0.79183    0.15   
H1   H      0.66447    0.70078    0.79183    0.15   
H1   H      0.11878    0.16333    0.87533    0.15   
H1   H      0.61878    0.66333    0.87533    0.15   
H2   H      0.14358    0.12668    0.91612    0.15   
H2   H      0.64358    0.62668    0.91612    0.15   
H2   H      0.1574     0.06499    0.9992     0.15   
H2   H      0.65739    0.56499    0.9992     0.15   
H1   H      0.21144    0.06862    0.11592    0.15   
H1   H      0.71144    0.56862    0.11592    0.15   
H2   H      0.22105    0.07465    0.04029    0.15   
H2   H      0.72105    0.57465    0.04029    0.15   
H2   H      0.00975    0.08542    0.6852     0.15   
H2   H      0.50975    0.58541    0.6852     0.15   
H1   H      0.03009    0.14486    0.68502    0.15   
H1   H      0.53008    0.64487    0.68502    0.15   
H2   H      0.17013    0.40142    0.77671    0.15   
H2   H      0.67012    0.90142    0.77671    0.15   
H1   H      0.15005    0.34392    0.77674    0.15   
H1   H      0.65005    0.84392    0.77674    0.15   
H1   H      0.14969    0.04706    0.08176    0.15   
H1   H      0.64969    0.54705    0.08176    0.15   
H3   H      0.85817    0.30705    0.9657     0.15   
H3   H      0.35817    0.80705    0.9657     0.15   
H3   H      0.83892    0.25293    0.84407    0.15   
H3   H      0.33892    0.75293    0.84407    0.15   
H3   H      0.86122    0.19024    0.95534    0.15   
H3   H      0.36122    0.69023    0.95534    0.15   
H2   H      0.86853    0.34661    0.92045    0.15   
H2   H      0.36853    0.84661    0.92045    0.15   
H1   H      0.86045    0.40574    0.88362    0.15   
H1   H      0.36045    0.90574    0.88362    0.15   
H1   H      0.81603    0.35808    0.80366    0.15   
H1   H      0.31603    0.85808    0.80366    0.15   
H2   H      0.82229    0.30062    0.8391     0.15   
H2   H      0.32229    0.80062    0.8391     0.15   
H2   H      0.8221     0.20313    0.83136    0.15   
H2   H      0.3221     0.70313    0.83136    0.15   
H1   H      0.81737    0.14632    0.79183    0.15   
H1   H      0.31737    0.64632    0.79183    0.15   
H1   H      0.85894    0.0965     0.87533    0.15   
H1   H      0.35894    0.5965     0.87533    0.15   
H2   H      0.86487    0.15203    0.91612    0.15   
H2   H      0.36487    0.65203    0.91612    0.15   
H2   H      0.8888     0.2036     0.9992     0.15   
H2   H      0.3888     0.7036     0.9992     0.15   
H1   H      0.85996    0.28285    0.11592    0.15   
H1   H      0.35996    0.78285    0.11592    0.15   
H2   H      0.85215    0.29425    0.04029    0.15   
H2   H      0.35215    0.79425    0.04029    0.15   
H2   H      0.45241    0.47192    0.6852     0.15   
H2   H      0.95241    0.97192    0.6852     0.15   
H1   H      0.41252    0.4727     0.68502    0.15   
H1   H      0.91252    0.9727     0.68502    0.15   
H2   H      0.71423    0.05447    0.77671    0.15   
H2   H      0.21424    0.55448    0.77671    0.15   
H1   H      0.75302    0.05311    0.77674    0.15   
H1   H      0.25302    0.55311    0.77674    0.15   
H1   H      0.90162    0.20101    0.08176    0.15   
H1   H      0.40162    0.70102    0.08176    0.15   
H3   H      0.91739    0.36627    0.5343     0.15   
H3   H      0.41739    0.86627    0.5343     0.15   
H3   H      0.95407    0.36809    0.65593    0.15   
H3   H      0.45407    0.86808    0.65593    0.15   
H3   H      0.97427    0.30328    0.54466    0.15   
H3   H      0.47427    0.80328    0.54466    0.15   
H2   H      0.89243    0.37051    0.57955    0.15   
H2   H      0.39243    0.87051    0.57955    0.15   
H1   H      0.8669     0.41219    0.61638    0.15   
H1   H      0.3669     0.91219    0.61638    0.15   
H1   H      0.91294    0.45499    0.69634    0.15   
H1   H      0.41294    0.95499    0.69634    0.15   
H2   H      0.93854    0.41687    0.6609     0.15   
H2   H      0.43854    0.91687    0.6609     0.15   
H2   H      0.98738    0.36841    0.66864    0.15   
H2   H      0.48738    0.86841    0.66864    0.15   
H1   H      0.01816    0.34711    0.70817    0.15   
H1   H      0.51815    0.84711    0.70817    0.15   
H1   H      0.02227    0.25983    0.62467    0.15   
H1   H      0.52227    0.75983    0.62467    0.15   
H2   H      0.99155    0.27871    0.58388    0.15   
H2   H      0.49155    0.77871    0.58388    0.15   
H2   H      0.95379    0.2686     0.5008     0.15   
H2   H      0.45379    0.76859    0.5008     0.15   
H1   H      0.92859    0.35148    0.38408    0.15   
H1   H      0.42859    0.85148    0.38408    0.15   
H2   H      0.9268     0.3689     0.45971    0.15   
H2   H      0.4268     0.8689     0.45971    0.15   
H2   H      0.03783    0.05734    0.8148     0.15   
H2   H      0.53783    0.55734    0.8148     0.15   
H1   H      0.05739    0.11756    0.81498    0.15   
H1   H      0.55739    0.61756    0.81498    0.15   
H2   H      0.11565    0.45589    0.72329    0.15   
H2   H      0.61565    0.95589    0.72329    0.15   
H1   H      0.09694    0.39703    0.72326    0.15   
H1   H      0.59694    0.89703    0.72326    0.15   
H1   H      0.94868    0.24807    0.41824    0.15   
H1   H      0.44868    0.74807    0.41824    0.15   
H3   H      0.72444    0.44078    0.5343     0.15   
H3   H      0.22444    0.94078    0.5343     0.15   
H3   H      0.707      0.38484    0.65593    0.15   
H3   H      0.207      0.88484    0.65593    0.15   
H3   H      0.6645     0.38696    0.54466    0.15   
H3   H      0.1645     0.88696    0.54466    0.15   
H2   H      0.73904    0.4761     0.57955    0.15   
H2   H      0.23904    0.9761     0.57955    0.15   
H1   H      0.77264    0.49354    0.61638    0.15   
H1   H      0.27264    0.99354    0.61638    0.15   
H1   H      0.77102    0.40309    0.69634    0.15   
H1   H      0.27102    0.90308    0.69634    0.15   
H2   H      0.73916    0.38376    0.6609     0.15   
H2   H      0.23916    0.88376    0.6609     0.15   
H2   H      0.69052    0.33472    0.66864    0.15   
H2   H      0.19052    0.83472    0.66864    0.15   
H1   H      0.66447    0.29922    0.70817    0.15   
H1   H      0.16448    0.79922    0.70817    0.15   
H1   H      0.61878    0.33667    0.62467    0.15   
H1   H      0.11878    0.83667    0.62467    0.15   
H2   H      0.64358    0.37332    0.58388    0.15   
H2   H      0.14358    0.87332    0.58388    0.15   
H2   H      0.65739    0.435      0.5008     0.15   
H2   H      0.1574     0.935      0.5008     0.15   
H1   H      0.71144    0.43137    0.38408    0.15   
H1   H      0.21144    0.93137    0.38408    0.15   
H2   H      0.72105    0.42535    0.45971    0.15   
H2   H      0.22105    0.92535    0.45971    0.15   
H2   H      0.50975    0.41458    0.8148     0.15   
H2   H      0.00976    0.91458    0.8148     0.15   
H1   H      0.53008    0.35513    0.81498    0.15   
H1   H      0.03008    0.85513    0.81498    0.15   
H2   H      0.67012    0.09858    0.72329    0.15   
H2   H      0.17013    0.59858    0.72329    0.15   
H1   H      0.65005    0.15608    0.72326    0.15   
H1   H      0.15005    0.65608    0.72326    0.15   
H1   H      0.64969    0.45295    0.41824    0.15   
H1   H      0.14969    0.95295    0.41824    0.15   
H3   H      0.35817    0.19295    0.5343     0.15   
H3   H      0.85817    0.69295    0.5343     0.15   
H3   H      0.33892    0.24707    0.65593    0.15   
H3   H      0.83892    0.74707    0.65593    0.15   
H3   H      0.36122    0.30977    0.54466    0.15   
H3   H      0.86122    0.80977    0.54466    0.15   
H2   H      0.36853    0.15339    0.57955    0.15   
H2   H      0.86853    0.65339    0.57955    0.15   
H1   H      0.36045    0.09426    0.61638    0.15   
H1   H      0.86045    0.59426    0.61638    0.15   
H1   H      0.31603    0.14192    0.69634    0.15   
H1   H      0.81603    0.64192    0.69634    0.15   
H2   H      0.32229    0.19937    0.6609     0.15   
H2   H      0.82229    0.69937    0.6609     0.15   
H2   H      0.3221     0.29687    0.66864    0.15   
H2   H      0.8221     0.79687    0.66864    0.15   
H1   H      0.31737    0.35368    0.70817    0.15   
H1   H      0.81737    0.85368    0.70817    0.15   
H1   H      0.35894    0.4035     0.62467    0.15   
H1   H      0.85894    0.9035     0.62467    0.15   
H2   H      0.36487    0.34797    0.58388    0.15   
H2   H      0.86487    0.84797    0.58388    0.15   
H2   H      0.3888     0.2964     0.5008     0.15   
H2   H      0.8888     0.7964     0.5008     0.15   
H1   H      0.35996    0.21714    0.38408    0.15   
H1   H      0.85996    0.71715    0.38408    0.15   
H2   H      0.35215    0.20575    0.45971    0.15   
H2   H      0.85215    0.70575    0.45971    0.15   
H2   H      0.95241    0.02808    0.8148     0.15   
H2   H      0.45241    0.52808    0.8148     0.15   
H1   H      0.91252    0.02731    0.81498    0.15   
H1   H      0.41252    0.5273     0.81498    0.15   
H2   H      0.21424    0.44552    0.72329    0.15   
H2   H      0.71423    0.94552    0.72329    0.15   
H1   H      0.25302    0.44689    0.72326    0.15   
H1   H      0.75302    0.94689    0.72326    0.15   
H1   H      0.40162    0.29898    0.41824    0.15   
H1   H      0.90162    0.79898    0.41824    0.15   
H3   H      0.01973    0.05857    0.25       0.15   
H3   H      0.51973    0.55857    0.25       0.15   
H3   H      0.96085    0          0.25       0.15   
H3   H      0.46085    0.50031    0.25       0.15   
H3   H      0.51942    0.44111    0.25       0.15   
H3   H      0.01943    0.94112    0.25       0.15   
H3   H      0.48026    0.44143    0.75       0.15   
H3   H      0.98026    0.94143    0.75       0.15   
H3   H      0.53915    0.49969    0.75       0.15   
H3   H      0.03915    0.99969    0.75       0.15   
H3   H      0.98057    0.05889    0.75       0.15   
H3   H      0.48057    0.55888    0.75       0.15   
H3   H      0.81382    0.44027    0.25       0.15   
H3   H      0.31382    0.94027    0.25       0.15   
H3   H      0.37295    0          0.25       0.15   
H3   H      0.87295    0.5006     0.25       0.15   
H3   H      0.31323    0.05913    0.25       0.15   
H3   H      0.81323    0.55913    0.25       0.15   
H3   H      0.68617    0.05972    0.75       0.15   
H3   H      0.18617    0.55972    0.75       0.15   
H3   H      0.12704    0.4994     0.75       0.15   
H3   H      0.62704    0.9994     0.75       0.15   
H3   H      0.18677    0.44087    0.75       0.15   
H3   H      0.68677    0.94087    0.75       0.15   


