data_NU-108-Cu-primitive

_audit_creation_method RASPA-1.0
_audit_creation_date 2012-1-24
_audit_author_name 'Ozgur Yazaydin'

_cell_length_a    44.9119
_cell_length_b    44.9119
_cell_length_c    44.9119
_cell_angle_alpha 60
_cell_angle_beta  60
_cell_angle_gamma 60
_cell_volume      64057.4

_symmetry_cell_setting          triclinic
_symmetry_space_group_name_Hall 'P 1'
_symmetry_space_group_name_H-M  'P 1'
_symmetry_Int_Tables_number     1

_symmetry_equiv_pos_as_xyz 'x,y,z'

loop_
_atom_site_label
_atom_site_type_symbol
_atom_site_fract_x
_atom_site_fract_y
_atom_site_fract_z
_atom_site_charge
C1       C     0.0821       0.4835       0.6095       0
C1       C     0.8249       0.4835       0.0821       0
C1       C     0.0821       0.6095       0.8249       0
C1       C     0.6095       0.0821       0.4835       0
C1       C     0.4835       0.8249       0.6095       0
C1       C     0.0821       0.8249       0.4835       0
C1       C     0.8249       0.0821       0.6095       0
C1       C     0.4835       0.6095       0.0821       0
C1       C     0.6095       0.4835       0.8249       0
C1       C     0.3905       0.9179       0.1751       0
C1       C     0.4835       0.0821       0.8249       0
C1       C     0.5165       0.1751       0.9179       0
C1       C     0.1751       0.5165       0.3905       0
C1       C     0.9179       0.3905       0.5165       0
C1       C     0.3905       0.5165       0.9179       0
C1       C     0.5165       0.3905       0.1751       0
C1       C     0.1751       0.9179       0.5165       0
C1       C     0.9179       0.1751       0.3905       0
C1       C     0.3905       0.1751       0.5165       0
C1       C     0.5165       0.9179       0.3905       0
C1       C     0.1751       0.3905       0.9179       0
C1       C     0.9179       0.5165       0.1751       0
C1       C     0.5165       0.9179       0.1751       0
C1       C     0.6095       0.8249       0.0821       0
C1       C     0.3905       0.1751       0.9179       0
C1       C     0.9179       0.5165       0.3905       0
C1       C     0.1751       0.3905       0.5165       0
C1       C     0.1751       0.5165       0.9179       0
C1       C     0.9179       0.3905       0.1751       0
C1       C     0.3905       0.9179       0.5165       0
C1       C     0.5165       0.1751       0.3905       0
C1       C     0.9179       0.1751       0.5165       0
C1       C     0.1751       0.9179       0.3905       0
C1       C     0.5165       0.3905       0.9179       0
C1       C     0.3905       0.5165       0.1751       0
C1       C     0.6095       0.0821       0.8249       0
C1       C     0.4835       0.8249       0.0821       0
C1       C     0.8249       0.4835       0.6095       0
C1       C     0.0821       0.6095       0.4835       0
C1       C     0.6095       0.4835       0.0821       0
C1       C     0.4835       0.6095       0.8249       0
C1       C     0.8249       0.0821       0.4835       0
C1       C     0.0821       0.8249       0.6095       0
C1       C     0.6095       0.8249       0.4835       0
C1       C     0.4835       0.0821       0.6095       0
C1       C     0.8249       0.6095       0.0821       0
C1       C     0.0821       0.4835       0.8249       0
C1       C     0.8249       0.6095       0.4835       0
C2       C     0.103        0.4772       0.7944       0
C2       C     0.4772       0.103        0.7944       0
C2       C     0.6254       0.7944       0.103        0
C2       C     0.103        0.4772       0.6254       0
C2       C     0.7944       0.6254       0.4772       0
C2       C     0.7944       0.4772       0.103        0
C2       C     0.103        0.6254       0.7944       0
C2       C     0.6254       0.103        0.4772       0
C2       C     0.4772       0.7944       0.6254       0
C2       C     0.103        0.7944       0.4772       0
C2       C     0.7944       0.103        0.6254       0
C2       C     0.4772       0.6254       0.103        0
C2       C     0.6254       0.4772       0.7944       0
C2       C     0.3746       0.897        0.2056       0
C2       C     0.5228       0.2056       0.897        0
C2       C     0.2056       0.5228       0.3746       0
C2       C     0.897        0.3746       0.5228       0
C2       C     0.3746       0.5228       0.897        0
C2       C     0.5228       0.3746       0.2056       0
C2       C     0.2056       0.897        0.5228       0
C2       C     0.897        0.2056       0.3746       0
C2       C     0.3746       0.2056       0.5228       0
C2       C     0.5228       0.897        0.3746       0
C2       C     0.2056       0.3746       0.897        0
C2       C     0.897        0.5228       0.2056       0
C2       C     0.5228       0.897        0.2056       0
C2       C     0.3746       0.2056       0.897        0
C2       C     0.897        0.5228       0.3746       0
C2       C     0.2056       0.3746       0.5228       0
C2       C     0.2056       0.5228       0.897        0
C2       C     0.897        0.3746       0.2056       0
C2       C     0.3746       0.897        0.5228       0
C2       C     0.5228       0.2056       0.3746       0
C2       C     0.897        0.2056       0.5228       0
C2       C     0.2056       0.897        0.3746       0
C2       C     0.5228       0.3746       0.897        0
C2       C     0.3746       0.5228       0.2056       0
C2       C     0.6254       0.103        0.7944       0
C2       C     0.4772       0.7944       0.103        0
C2       C     0.7944       0.4772       0.6254       0
C2       C     0.103        0.6254       0.4772       0
C2       C     0.6254       0.4772       0.103        0
C2       C     0.4772       0.6254       0.7944       0
C2       C     0.7944       0.103        0.4772       0
C2       C     0.103        0.7944       0.6254       0
C2       C     0.6254       0.7944       0.4772       0
C2       C     0.4772       0.103        0.6254       0
C2       C     0.7944       0.6254       0.103        0
C3       C     0.5182       0.9503       0.1569       0
C3       C     0.4818       0.0497       0.8431       0
C3       C     0.6254       0.8431       0.0497       0
C3       C     0.0497       0.4818       0.6254       0
C3       C     0.8431       0.6254       0.4818       0
C3       C     0.8431       0.4818       0.0497       0
C3       C     0.0497       0.6254       0.8431       0
C3       C     0.6254       0.0497       0.4818       0
C3       C     0.4818       0.8431       0.6254       0
C3       C     0.0497       0.8431       0.4818       0
C3       C     0.8431       0.0497       0.6254       0
C3       C     0.4818       0.6254       0.0497       0
C3       C     0.6254       0.4818       0.8431       0
C3       C     0.3746       0.9503       0.1569       0
C3       C     0.5182       0.1569       0.9503       0
C3       C     0.1569       0.5182       0.3746       0
C3       C     0.9503       0.3746       0.5182       0
C3       C     0.3746       0.5182       0.9503       0
C3       C     0.5182       0.3746       0.1569       0
C3       C     0.1569       0.9503       0.5182       0
C3       C     0.9503       0.1569       0.3746       0
C3       C     0.3746       0.1569       0.5182       0
C3       C     0.5182       0.9503       0.3746       0
C3       C     0.1569       0.3746       0.9503       0
C3       C     0.9503       0.5182       0.1569       0
C3       C     0.3746       0.1569       0.9503       0
C3       C     0.9503       0.5182       0.3746       0
C3       C     0.1569       0.3746       0.5182       0
C3       C     0.1569       0.5182       0.9503       0
C3       C     0.9503       0.3746       0.1569       0
C3       C     0.3746       0.9503       0.5182       0
C3       C     0.5182       0.1569       0.3746       0
C3       C     0.9503       0.1569       0.5182       0
C3       C     0.1569       0.9503       0.3746       0
C3       C     0.5182       0.3746       0.9503       0
C3       C     0.3746       0.5182       0.1569       0
C3       C     0.6254       0.0497       0.8431       0
C3       C     0.4818       0.8431       0.0497       0
C3       C     0.8431       0.4818       0.6254       0
C3       C     0.0497       0.6254       0.4818       0
C3       C     0.6254       0.4818       0.0497       0
C3       C     0.4818       0.6254       0.8431       0
C3       C     0.8431       0.0497       0.4818       0
C3       C     0.0497       0.8431       0.6254       0
C3       C     0.6254       0.8431       0.4818       0
C3       C     0.4818       0.0497       0.6254       0
C3       C     0.8431       0.6254       0.0497       0
C3       C     0.0497       0.4818       0.8431       0
C4       C     0.4694       0.0898       0.7798       0
C4       C     0.0898       0.4694       0.661        0
C4       C     0.7798       0.661        0.4694       0
C4       C     0.7798       0.4694       0.0898       0
C4       C     0.0898       0.661        0.7798       0
C4       C     0.661        0.0898       0.4694       0
C4       C     0.4694       0.7798       0.661        0
C4       C     0.0898       0.7798       0.4694       0
C4       C     0.7798       0.0898       0.661        0
C4       C     0.4694       0.661        0.0898       0
C4       C     0.661        0.4694       0.7798       0
C4       C     0.339        0.9102       0.2202       0
C4       C     0.5306       0.2202       0.9102       0
C4       C     0.2202       0.5306       0.339        0
C4       C     0.9102       0.339        0.5306       0
C4       C     0.339        0.5306       0.9102       0
C4       C     0.5306       0.339        0.2202       0
C4       C     0.2202       0.9102       0.5306       0
C4       C     0.9102       0.2202       0.339        0
C4       C     0.339        0.2202       0.5306       0
C4       C     0.5306       0.9102       0.339        0
C4       C     0.2202       0.339        0.9102       0
C4       C     0.9102       0.5306       0.2202       0
C4       C     0.5306       0.9102       0.2202       0
C4       C     0.339        0.2202       0.9102       0
C4       C     0.9102       0.5306       0.339        0
C4       C     0.2202       0.339        0.5306       0
C4       C     0.2202       0.5306       0.9102       0
C4       C     0.9102       0.339        0.2202       0
C4       C     0.339        0.9102       0.5306       0
C4       C     0.5306       0.2202       0.339        0
C4       C     0.9102       0.2202       0.5306       0
C4       C     0.2202       0.9102       0.339        0
C4       C     0.5306       0.339        0.9102       0
C4       C     0.339        0.5306       0.2202       0
C4       C     0.661        0.0898       0.7798       0
C4       C     0.4694       0.7798       0.0898       0
C4       C     0.7798       0.4694       0.661        0
C4       C     0.0898       0.661        0.4694       0
C4       C     0.661        0.4694       0.0898       0
C4       C     0.4694       0.661        0.7798       0
C4       C     0.7798       0.0898       0.4694       0
C4       C     0.0898       0.7798       0.661        0
C4       C     0.661        0.7798       0.4694       0
C4       C     0.4694       0.0898       0.661        0
C4       C     0.7798       0.661        0.0898       0
C4       C     0.0898       0.4694       0.7798       0
C4       C     0.661        0.7798       0.0898       0
C5       C     0.0345       0.4754       0.8253       0
C5       C     0.4754       0.0345       0.8253       0
C5       C     0.6648       0.8253       0.0345       0
C5       C     0.0345       0.4754       0.6648       0
C5       C     0.8253       0.6648       0.4754       0
C5       C     0.8253       0.4754       0.0345       0
C5       C     0.0345       0.6648       0.8253       0
C5       C     0.6648       0.0345       0.4754       0
C5       C     0.4754       0.8253       0.6648       0
C5       C     0.0345       0.8253       0.4754       0
C5       C     0.8253       0.0345       0.6648       0
C5       C     0.4754       0.6648       0.0345       0
C5       C     0.6648       0.4754       0.8253       0
C5       C     0.3352       0.9655       0.1747       0
C5       C     0.5246       0.1747       0.9655       0
C5       C     0.1747       0.5246       0.3352       0
C5       C     0.9655       0.3352       0.5246       0
C5       C     0.3352       0.5246       0.9655       0
C5       C     0.5246       0.3352       0.1747       0
C5       C     0.1747       0.9655       0.5246       0
C5       C     0.9655       0.1747       0.3352       0
C5       C     0.3352       0.1747       0.5246       0
C5       C     0.5246       0.9655       0.3352       0
C5       C     0.1747       0.3352       0.9655       0
C5       C     0.9655       0.5246       0.1747       0
C5       C     0.5246       0.9655       0.1747       0
C5       C     0.3352       0.1747       0.9655       0
C5       C     0.9655       0.5246       0.3352       0
C5       C     0.1747       0.3352       0.5246       0
C5       C     0.1747       0.5246       0.9655       0
C5       C     0.9655       0.3352       0.1747       0
C5       C     0.3352       0.9655       0.5246       0
C5       C     0.5246       0.1747       0.3352       0
C5       C     0.9655       0.1747       0.5246       0
C5       C     0.1747       0.9655       0.3352       0
C5       C     0.5246       0.3352       0.9655       0
C5       C     0.3352       0.5246       0.1747       0
C5       C     0.6648       0.0345       0.8253       0
C5       C     0.4754       0.8253       0.0345       0
C5       C     0.8253       0.4754       0.6648       0
C5       C     0.0345       0.6648       0.4754       0
C5       C     0.6648       0.4754       0.0345       0
C5       C     0.4754       0.6648       0.8253       0
C5       C     0.8253       0.0345       0.4754       0
C5       C     0.0345       0.8253       0.6648       0
C5       C     0.6648       0.8253       0.4754       0
C5       C     0.4754       0.0345       0.6648       0
C5       C     0.8253       0.6648       0.0345       0
C6       C     0.4687       0.0553       0.7919       0
C6       C     0.6841       0.7919       0.0553       0
C6       C     0.0553       0.4687       0.6841       0
C6       C     0.7919       0.6841       0.4687       0
C6       C     0.7919       0.4687       0.0553       0
C6       C     0.0553       0.6841       0.7919       0
C6       C     0.6841       0.0553       0.4687       0
C6       C     0.4687       0.7919       0.6841       0
C6       C     0.0553       0.7919       0.4687       0
C6       C     0.7919       0.0553       0.6841       0
C6       C     0.4687       0.6841       0.0553       0
C6       C     0.6841       0.4687       0.7919       0
C6       C     0.3159       0.9447       0.2081       0
C6       C     0.5313       0.2081       0.9447       0
C6       C     0.2081       0.5313       0.3159       0
C6       C     0.9447       0.3159       0.5313       0
C6       C     0.3159       0.5313       0.9447       0
C6       C     0.5313       0.3159       0.2081       0
C6       C     0.2081       0.9447       0.5313       0
C6       C     0.9447       0.2081       0.3159       0
C6       C     0.3159       0.2081       0.5313       0
C6       C     0.5313       0.9447       0.3159       0
C6       C     0.2081       0.3159       0.9447       0
C6       C     0.9447       0.5313       0.2081       0
C6       C     0.5313       0.9447       0.2081       0
C6       C     0.3159       0.2081       0.9447       0
C6       C     0.9447       0.5313       0.3159       0
C6       C     0.2081       0.3159       0.5313       0
C6       C     0.2081       0.5313       0.9447       0
C6       C     0.9447       0.3159       0.2081       0
C6       C     0.3159       0.9447       0.5313       0
C6       C     0.5313       0.2081       0.3159       0
C6       C     0.9447       0.2081       0.5313       0
C6       C     0.2081       0.9447       0.3159       0
C6       C     0.5313       0.3159       0.9447       0
C6       C     0.3159       0.5313       0.2081       0
C6       C     0.6841       0.0553       0.7919       0
C6       C     0.4687       0.7919       0.0553       0
C6       C     0.7919       0.4687       0.6841       0
C6       C     0.0553       0.6841       0.4687       0
C6       C     0.6841       0.4687       0.0553       0
C6       C     0.4687       0.6841       0.7919       0
C6       C     0.7919       0.0553       0.4687       0
C6       C     0.0553       0.7919       0.6841       0
C6       C     0.6841       0.7919       0.4687       0
C6       C     0.4687       0.0553       0.6841       0
C6       C     0.7919       0.6841       0.0553       0
C6       C     0.0553       0.4687       0.7919       0
C7       C     0.7242       0.778        0.0337       0
C7       C     0.778        0.7242       0.4641       0
C7       C     0.778        0.4641       0.0337       0
C7       C     0.0337       0.7242       0.778        0
C7       C     0.7242       0.0337       0.4641       0
C7       C     0.4641       0.778        0.7242       0
C7       C     0.0337       0.778        0.4641       0
C7       C     0.778        0.0337       0.7242       0
C7       C     0.4641       0.7242       0.0337       0
C7       C     0.7242       0.4641       0.778        0
C7       C     0.2758       0.9663       0.222        0
C7       C     0.5359       0.222        0.9663       0
C7       C     0.222        0.5359       0.2758       0
C7       C     0.9663       0.2758       0.5359       0
C7       C     0.2758       0.5359       0.9663       0
C7       C     0.5359       0.2758       0.222        0
C7       C     0.222        0.9663       0.5359       0
C7       C     0.9663       0.222        0.2758       0
C7       C     0.2758       0.222        0.5359       0
C7       C     0.5359       0.9663       0.2758       0
C7       C     0.222        0.2758       0.9663       0
C7       C     0.9663       0.5359       0.222        0
C7       C     0.5359       0.9663       0.222        0
C7       C     0.4641       0.0337       0.778        0
C7       C     0.2758       0.222        0.9663       0
C7       C     0.9663       0.5359       0.2758       0
C7       C     0.222        0.2758       0.5359       0
C7       C     0.222        0.5359       0.9663       0
C7       C     0.9663       0.2758       0.222        0
C7       C     0.2758       0.9663       0.5359       0
C7       C     0.5359       0.222        0.2758       0
C7       C     0.9663       0.222        0.5359       0
C7       C     0.222        0.9663       0.2758       0
C7       C     0.5359       0.2758       0.9663       0
C7       C     0.2758       0.5359       0.222        0
C7       C     0.7242       0.0337       0.778        0
C7       C     0.4641       0.778        0.0337       0
C7       C     0.778        0.4641       0.7242       0
C7       C     0.0337       0.7242       0.4641       0
C7       C     0.7242       0.4641       0.0337       0
C7       C     0.4641       0.7242       0.778        0
C7       C     0.778        0.0337       0.4641       0
C7       C     0.0337       0.778        0.7242       0
C7       C     0.7242       0.778        0.4641       0
C7       C     0.4641       0.0337       0.7242       0
C7       C     0.778        0.7242       0.0337       0
C7       C     0.0337       0.4641       0.778        0
C7       C     0.0337       0.4641       0.7242       0
C8       C     0.1016       0.4895       0.8408       0
C8       C     0.4895       0.1016       0.8408       0
C8       C     0.568        0.8408       0.1016       0
C8       C     0.1016       0.4895       0.568        0
C8       C     0.8408       0.568        0.4895       0
C8       C     0.8408       0.4895       0.1016       0
C8       C     0.1016       0.568        0.8408       0
C8       C     0.568        0.1016       0.4895       0
C8       C     0.4895       0.8408       0.568        0
C8       C     0.1016       0.8408       0.4895       0
C8       C     0.8408       0.1016       0.568        0
C8       C     0.4895       0.568        0.1016       0
C8       C     0.568        0.4895       0.8408       0
C8       C     0.432        0.8984       0.1592       0
C8       C     0.5105       0.1592       0.8984       0
C8       C     0.1592       0.5105       0.432        0
C8       C     0.8984       0.432        0.5105       0
C8       C     0.432        0.5105       0.8984       0
C8       C     0.5105       0.432        0.1592       0
C8       C     0.1592       0.8984       0.5105       0
C8       C     0.8984       0.1592       0.432        0
C8       C     0.432        0.1592       0.5105       0
C8       C     0.5105       0.8984       0.432        0
C8       C     0.1592       0.432        0.8984       0
C8       C     0.8984       0.5105       0.1592       0
C8       C     0.5105       0.8984       0.1592       0
C8       C     0.432        0.1592       0.8984       0
C8       C     0.8984       0.5105       0.432        0
C8       C     0.1592       0.432        0.5105       0
C8       C     0.1592       0.5105       0.8984       0
C8       C     0.8984       0.432        0.1592       0
C8       C     0.432        0.8984       0.5105       0
C8       C     0.5105       0.1592       0.432        0
C8       C     0.8984       0.1592       0.5105       0
C8       C     0.1592       0.8984       0.432        0
C8       C     0.5105       0.432        0.8984       0
C8       C     0.432        0.5105       0.1592       0
C8       C     0.568        0.1016       0.8408       0
C8       C     0.4895       0.8408       0.1016       0
C8       C     0.8408       0.4895       0.568        0
C8       C     0.1016       0.568        0.4895       0
C8       C     0.568        0.4895       0.1016       0
C8       C     0.4895       0.568        0.8408       0
C8       C     0.8408       0.1016       0.4895       0
C8       C     0.1016       0.8408       0.568        0
C8       C     0.568        0.8408       0.4895       0
C8       C     0.4895       0.1016       0.568        0
C8       C     0.8408       0.568        0.1016       0
C9       C     0.544        0.9994       0.2          0
C9       C     0.456        0.0006       0.8          0
C9       C     0.7434       0.8          0.0006       0
C9       C     0.0006       0.456        0.7434       0
C9       C     0.8          0.7434       0.456        0
C9       C     0.8          0.456        0.0006       0
C9       C     0.0006       0.7434       0.8          0
C9       C     0.7434       0.0006       0.456        0
C9       C     0.456        0.8          0.7434       0
C9       C     0.0006       0.8          0.456        0
C9       C     0.8          0.0006       0.7434       0
C9       C     0.456        0.7434       0.0006       0
C9       C     0.7434       0.456        0.8          0
C9       C     0.2566       0.9994       0.2          0
C9       C     0.544        0.2          0.9994       0
C9       C     0.2          0.544        0.2566       0
C9       C     0.9994       0.2566       0.544        0
C9       C     0.2566       0.544        0.9994       0
C9       C     0.544        0.2566       0.2          0
C9       C     0.2          0.9994       0.544        0
C9       C     0.9994       0.2          0.2566       0
C9       C     0.2566       0.2          0.544        0
C9       C     0.544        0.9994       0.2566       0
C9       C     0.2          0.2566       0.9994       0
C9       C     0.9994       0.544        0.2          0
C9       C     0.2566       0.2          0.9994       0
C9       C     0.9994       0.544        0.2566       0
C9       C     0.2          0.2566       0.544        0
C9       C     0.2          0.544        0.9994       0
C9       C     0.9994       0.2566       0.2          0
C9       C     0.2566       0.9994       0.544        0
C9       C     0.544        0.2          0.2566       0
C9       C     0.9994       0.2          0.544        0
C9       C     0.2          0.9994       0.2566       0
C9       C     0.544        0.2566       0.9994       0
C9       C     0.2566       0.544        0.2          0
C9       C     0.7434       0.0006       0.8          0
C9       C     0.456        0.8          0.0006       0
C9       C     0.8          0.456        0.7434       0
C9       C     0.0006       0.7434       0.456        0
C9       C     0.7434       0.456        0.0006       0
C9       C     0.456        0.7434       0.8          0
C9       C     0.8          0.0006       0.456        0
C9       C     0.0006       0.8          0.7434       0
C9       C     0.7434       0.8          0.456        0
C9       C     0.456        0.0006       0.7434       0
C9       C     0.8          0.7434       0.0006       0
C9       C     0.0006       0.456        0.8          0
C10      C     0.4516       0.9852       0.7816       0
C10      C     0.9852       0.4516       0.7816       0
C10      C     0.7816       0.7816       0.4516       0
C10      C     0.7816       0.4516       0.9852       0
C10      C     0.9852       0.7816       0.7816       0
C10      C     0.7816       0.9852       0.4516       0
C10      C     0.4516       0.7816       0.7816       0
C10      C     0.9852       0.7816       0.4516       0
C10      C     0.7816       0.9852       0.7816       0
C10      C     0.4516       0.7816       0.9852       0
C10      C     0.7816       0.4516       0.7816       0
C10      C     0.2184       0.0148       0.2184       0
C10      C     0.5484       0.2184       0.0148       0
C10      C     0.2184       0.5484       0.2184       0
C10      C     0.0148       0.2184       0.5484       0
C10      C     0.2184       0.5484       0.0148       0
C10      C     0.5484       0.2184       0.2184       0
C10      C     0.2184       0.0148       0.5484       0
C10      C     0.0148       0.2184       0.2184       0
C10      C     0.2184       0.2184       0.5484       0
C10      C     0.5484       0.0148       0.2184       0
C10      C     0.2184       0.2184       0.0148       0
C10      C     0.0148       0.5484       0.2184       0
C10      C     0.7816       0.7816       0.9852       0
C13      C     0.9452       0.5342       0.2603       0
C13      C     0.4658       0.0548       0.7397       0
C13      C     0.7397       0.7397       0.0548       0
C13      C     0.0548       0.4658       0.7397       0
C13      C     0.7397       0.7397       0.4658       0
C13      C     0.7397       0.4658       0.0548       0
C13      C     0.0548       0.7397       0.7397       0
C13      C     0.7397       0.0548       0.4658       0
C13      C     0.4658       0.7397       0.7397       0
C13      C     0.0548       0.7397       0.4658       0
C13      C     0.7397       0.0548       0.7397       0
C13      C     0.4658       0.7397       0.0548       0
C13      C     0.7397       0.4658       0.7397       0
C13      C     0.2603       0.9452       0.2603       0
C13      C     0.5342       0.2603       0.9452       0
C13      C     0.2603       0.5342       0.2603       0
C13      C     0.9452       0.2603       0.5342       0
C13      C     0.2603       0.5342       0.9452       0
C13      C     0.5342       0.2603       0.2603       0
C13      C     0.2603       0.9452       0.5342       0
C13      C     0.9452       0.2603       0.2603       0
C13      C     0.2603       0.2603       0.5342       0
C13      C     0.5342       0.9452       0.2603       0
C13      C     0.2603       0.2603       0.9452       0
C14      C     0.1998       0.048        0.1998       0
C14      C     0.4476       0.952        0.8002       0
C14      C     0.8002       0.8002       0.952        0
C14      C     0.952        0.4476       0.8002       0
C14      C     0.8002       0.8002       0.4476       0
C14      C     0.8002       0.4476       0.952        0
C14      C     0.952        0.8002       0.8002       0
C14      C     0.8002       0.952        0.4476       0
C14      C     0.4476       0.8002       0.8002       0
C14      C     0.952        0.8002       0.4476       0
C14      C     0.8002       0.952        0.8002       0
C14      C     0.4476       0.8002       0.952        0
C14      C     0.8002       0.4476       0.8002       0
C14      C     0.5524       0.1998       0.048        0
C14      C     0.1998       0.5524       0.1998       0
C14      C     0.048        0.1998       0.5524       0
C14      C     0.1998       0.5524       0.048        0
C14      C     0.5524       0.1998       0.1998       0
C14      C     0.1998       0.048        0.5524       0
C14      C     0.048        0.1998       0.1998       0
C14      C     0.1998       0.1998       0.5524       0
C14      C     0.5524       0.048        0.1998       0
C14      C     0.1998       0.1998       0.048        0
C14      C     0.048        0.5524       0.1998       0
C15      C     0.8137       0.8137       0.9258       0
C15      C     0.8137       0.8137       0.4468       0
C15      C     0.8137       0.4468       0.9258       0
C15      C     0.9258       0.8137       0.8137       0
C15      C     0.8137       0.9258       0.4468       0
C15      C     0.4468       0.8137       0.8137       0
C15      C     0.9258       0.8137       0.4468       0
C15      C     0.8137       0.9258       0.8137       0
C15      C     0.4468       0.8137       0.9258       0
C15      C     0.8137       0.4468       0.8137       0
C15      C     0.1863       0.0742       0.1863       0
C15      C     0.5532       0.1863       0.0742       0
C15      C     0.9258       0.4468       0.8137       0
C15      C     0.1863       0.5532       0.1863       0
C15      C     0.0742       0.1863       0.5532       0
C15      C     0.1863       0.5532       0.0742       0
C15      C     0.5532       0.1863       0.1863       0
C15      C     0.1863       0.0742       0.5532       0
C15      C     0.0742       0.1863       0.1863       0
C15      C     0.1863       0.1863       0.5532       0
C15      C     0.5532       0.0742       0.1863       0
C15      C     0.1863       0.1863       0.0742       0
C15      C     0.0742       0.5532       0.1863       0
C15      C     0.4468       0.9258       0.8137       0
C16      C     0.4394       0.8888       0.8359       0
C16      C     0.8359       0.8359       0.8888       0
C16      C     0.8888       0.4394       0.8359       0
C16      C     0.8359       0.8359       0.4394       0
C16      C     0.8359       0.4394       0.8888       0
C16      C     0.8888       0.8359       0.8359       0
C16      C     0.8359       0.8888       0.4394       0
C16      C     0.4394       0.8359       0.8359       0
C16      C     0.8888       0.8359       0.4394       0
C16      C     0.8359       0.8888       0.8359       0
C16      C     0.4394       0.8359       0.8888       0
C16      C     0.8359       0.4394       0.8359       0
C16      C     0.1641       0.1112       0.1641       0
C16      C     0.5606       0.1641       0.1112       0
C16      C     0.1641       0.5606       0.1641       0
C16      C     0.1112       0.1641       0.5606       0
C16      C     0.1641       0.5606       0.1112       0
C16      C     0.5606       0.1641       0.1641       0
C16      C     0.1641       0.1112       0.5606       0
C16      C     0.1112       0.1641       0.1641       0
C16      C     0.1641       0.1641       0.5606       0
C16      C     0.5606       0.1112       0.1641       0
C16      C     0.1641       0.1641       0.1112       0
C16      C     0.1112       0.5606       0.1641       0
C17      C     0.1284       0.1284       0.1788       0
C17      C     0.4356       0.8716       0.8212       0
C17      C     0.8716       0.8212       0.8716       0
C17      C     0.8716       0.4356       0.8716       0
C17      C     0.8212       0.8716       0.4356       0
C17      C     0.8212       0.4356       0.8716       0
C17      C     0.8716       0.8716       0.8212       0
C17      C     0.8716       0.8716       0.4356       0
C17      C     0.4356       0.8212       0.8716       0
C17      C     0.8716       0.8212       0.4356       0
C17      C     0.8212       0.8716       0.8716       0
C17      C     0.4356       0.8716       0.8716       0
C17      C     0.8716       0.4356       0.8212       0
C17      C     0.5644       0.1788       0.1284       0
C17      C     0.1788       0.5644       0.1284       0
C17      C     0.1284       0.1284       0.5644       0
C17      C     0.1284       0.5644       0.1284       0
C17      C     0.5644       0.1284       0.1788       0
C17      C     0.1788       0.1284       0.5644       0
C17      C     0.1284       0.1788       0.1284       0
C17      C     0.1284       0.1788       0.5644       0
C17      C     0.5644       0.1284       0.1284       0
C17      C     0.1788       0.1284       0.1284       0
C17      C     0.1284       0.5644       0.1788       0
Cu1      Cu    0.5          0.1002       0.8998       0
Cu1      Cu    0.1002       0.5          0.5          0
Cu1      Cu    0.8998       0.5          0.5          0
Cu1      Cu    0.8998       0.5          0.1002       0
Cu1      Cu    0.1002       0.5          0.8998       0
Cu1      Cu    0.5          0.1002       0.5          0
Cu1      Cu    0.5          0.8998       0.5          0
Cu1      Cu    0.1002       0.8998       0.5          0
Cu1      Cu    0.8998       0.1002       0.5          0
Cu1      Cu    0.5          0.5          0.1002       0
Cu1      Cu    0.5          0.5          0.8998       0
Cu1      Cu    0.5          0.8998       0.1002       0
Cu2      Cu    0.5          0.5          0.8419       0
Cu2      Cu    0.5          0.1581       0.8419       0
Cu2      Cu    0.5          0.8419       0.1581       0
Cu2      Cu    0.1581       0.5          0.5          0
Cu2      Cu    0.8419       0.5          0.5          0
Cu2      Cu    0.8419       0.5          0.1581       0
Cu2      Cu    0.1581       0.5          0.8419       0
Cu2      Cu    0.5          0.1581       0.5          0
Cu2      Cu    0.5          0.8419       0.5          0
Cu2      Cu    0.1581       0.8419       0.5          0
Cu2      Cu    0.8419       0.1581       0.5          0
Cu2      Cu    0.5          0.5          0.1581       0
H2       H     0.5217       0.8733       0.2169       0
H2       H     0.4783       0.1267       0.7831       0
H2       H     0.6119       0.7831       0.1267       0
H2       H     0.1267       0.4783       0.6119       0
H2       H     0.7831       0.6119       0.4783       0
H2       H     0.7831       0.4783       0.1267       0
H2       H     0.1267       0.6119       0.7831       0
H2       H     0.6119       0.1267       0.4783       0
H2       H     0.4783       0.7831       0.6119       0
H2       H     0.1267       0.7831       0.4783       0
H2       H     0.7831       0.1267       0.6119       0
H2       H     0.4783       0.6119       0.1267       0
H2       H     0.6119       0.4783       0.7831       0
H2       H     0.3881       0.8733       0.2169       0
H2       H     0.5217       0.2169       0.8733       0
H2       H     0.2169       0.5217       0.3881       0
H2       H     0.8733       0.3881       0.5217       0
H2       H     0.3881       0.5217       0.8733       0
H2       H     0.5217       0.3881       0.2169       0
H2       H     0.2169       0.8733       0.5217       0
H2       H     0.8733       0.2169       0.3881       0
H2       H     0.3881       0.2169       0.5217       0
H2       H     0.5217       0.8733       0.3881       0
H2       H     0.2169       0.3881       0.8733       0
H2       H     0.8733       0.5217       0.2169       0
H2       H     0.3881       0.2169       0.8733       0
H2       H     0.8733       0.5217       0.3881       0
H2       H     0.2169       0.3881       0.5217       0
H2       H     0.2169       0.5217       0.8733       0
H2       H     0.8733       0.3881       0.2169       0
H2       H     0.3881       0.8733       0.5217       0
H2       H     0.5217       0.2169       0.3881       0
H2       H     0.8733       0.2169       0.5217       0
H2       H     0.2169       0.8733       0.3881       0
H2       H     0.5217       0.3881       0.8733       0
H2       H     0.3881       0.5217       0.2169       0
H2       H     0.6119       0.1267       0.7831       0
H2       H     0.4783       0.7831       0.1267       0
H2       H     0.7831       0.4783       0.6119       0
H2       H     0.1267       0.6119       0.4783       0
H2       H     0.6119       0.4783       0.1267       0
H2       H     0.4783       0.6119       0.7831       0
H2       H     0.7831       0.1267       0.4783       0
H2       H     0.1267       0.7831       0.6119       0
H2       H     0.6119       0.7831       0.4783       0
H2       H     0.4783       0.1267       0.6119       0
H2       H     0.7831       0.6119       0.1267       0
H2       H     0.1267       0.4783       0.7831       0
H3       H     0.4844       0.0366       0.8662       0
H3       H     0.0366       0.4844       0.6128       0
H3       H     0.8662       0.6128       0.4844       0
H3       H     0.8662       0.4844       0.0366       0
H3       H     0.0366       0.6128       0.8662       0
H3       H     0.6128       0.0366       0.4844       0
H3       H     0.4844       0.8662       0.6128       0
H3       H     0.0366       0.8662       0.4844       0
H3       H     0.8662       0.0366       0.6128       0
H3       H     0.4844       0.6128       0.0366       0
H3       H     0.6128       0.4844       0.8662       0
H3       H     0.3872       0.9634       0.1338       0
H3       H     0.5156       0.1338       0.9634       0
H3       H     0.1338       0.5156       0.3872       0
H3       H     0.9634       0.3872       0.5156       0
H3       H     0.3872       0.5156       0.9634       0
H3       H     0.5156       0.3872       0.1338       0
H3       H     0.1338       0.9634       0.5156       0
H3       H     0.9634       0.1338       0.3872       0
H3       H     0.3872       0.1338       0.5156       0
H3       H     0.5156       0.9634       0.3872       0
H3       H     0.1338       0.3872       0.9634       0
H3       H     0.9634       0.5156       0.1338       0
H3       H     0.5156       0.9634       0.1338       0
H3       H     0.3872       0.1338       0.9634       0
H3       H     0.9634       0.5156       0.3872       0
H3       H     0.1338       0.3872       0.5156       0
H3       H     0.1338       0.5156       0.9634       0
H3       H     0.9634       0.3872       0.1338       0
H3       H     0.3872       0.9634       0.5156       0
H3       H     0.5156       0.1338       0.3872       0
H3       H     0.9634       0.1338       0.5156       0
H3       H     0.1338       0.9634       0.3872       0
H3       H     0.5156       0.3872       0.9634       0
H3       H     0.3872       0.5156       0.1338       0
H3       H     0.6128       0.0366       0.8662       0
H3       H     0.4844       0.8662       0.0366       0
H3       H     0.8662       0.4844       0.6128       0
H3       H     0.0366       0.6128       0.4844       0
H3       H     0.6128       0.4844       0.0366       0
H3       H     0.4844       0.6128       0.8662       0
H3       H     0.8662       0.0366       0.4844       0
H3       H     0.0366       0.8662       0.6128       0
H3       H     0.6128       0.8662       0.4844       0
H3       H     0.4844       0.0366       0.6128       0
H3       H     0.8662       0.6128       0.0366       0
H3       H     0.0366       0.4844       0.8662       0
H3       H     0.6128       0.8662       0.0366       0
H4       H     0.1062       0.4634       0.7584       0
H4       H     0.4634       0.1062       0.7584       0
H4       H     0.672        0.7584       0.1062       0
H4       H     0.1062       0.4634       0.672        0
H4       H     0.7584       0.672        0.4634       0
H4       H     0.7584       0.4634       0.1062       0
H4       H     0.1062       0.672        0.7584       0
H4       H     0.672        0.1062       0.4634       0
H4       H     0.4634       0.7584       0.672        0
H4       H     0.1062       0.7584       0.4634       0
H4       H     0.7584       0.1062       0.672        0
H4       H     0.4634       0.672        0.1062       0
H4       H     0.672        0.4634       0.7584       0
H4       H     0.328        0.8938       0.2416       0
H4       H     0.5366       0.2416       0.8938       0
H4       H     0.2416       0.5366       0.328        0
H4       H     0.8938       0.328        0.5366       0
H4       H     0.328        0.5366       0.8938       0
H4       H     0.5366       0.328        0.2416       0
H4       H     0.2416       0.8938       0.5366       0
H4       H     0.8938       0.2416       0.328        0
H4       H     0.328        0.2416       0.5366       0
H4       H     0.5366       0.8938       0.328        0
H4       H     0.2416       0.328        0.8938       0
H4       H     0.8938       0.5366       0.2416       0
H4       H     0.5366       0.8938       0.2416       0
H4       H     0.328        0.2416       0.8938       0
H4       H     0.8938       0.5366       0.328        0
H4       H     0.2416       0.328        0.5366       0
H4       H     0.2416       0.5366       0.8938       0
H4       H     0.8938       0.328        0.2416       0
H4       H     0.328        0.8938       0.5366       0
H4       H     0.5366       0.2416       0.328        0
H4       H     0.8938       0.2416       0.5366       0
H4       H     0.2416       0.8938       0.328        0
H4       H     0.5366       0.328        0.8938       0
H4       H     0.328        0.5366       0.2416       0
H4       H     0.672        0.1062       0.7584       0
H4       H     0.4634       0.7584       0.1062       0
H4       H     0.7584       0.4634       0.672        0
H4       H     0.1062       0.672        0.4634       0
H4       H     0.672        0.4634       0.1062       0
H4       H     0.4634       0.672        0.7584       0
H4       H     0.7584       0.1062       0.4634       0
H4       H     0.1062       0.7584       0.672        0
H4       H     0.672        0.7584       0.4634       0
H4       H     0.4634       0.1062       0.672        0
H4       H     0.7584       0.672        0.1062       0
H5       H     0.4759       0.0101       0.8365       0
H5       H     0.6775       0.8365       0.0101       0
H5       H     0.0101       0.4759       0.6775       0
H5       H     0.8365       0.6775       0.4759       0
H5       H     0.8365       0.4759       0.0101       0
H5       H     0.0101       0.6775       0.8365       0
H5       H     0.6775       0.0101       0.4759       0
H5       H     0.4759       0.8365       0.6775       0
H5       H     0.0101       0.8365       0.4759       0
H5       H     0.8365       0.0101       0.6775       0
H5       H     0.4759       0.6775       0.0101       0
H5       H     0.6775       0.4759       0.8365       0
H5       H     0.3225       0.9899       0.1635       0
H5       H     0.5241       0.1635       0.9899       0
H5       H     0.1635       0.5241       0.3225       0
H5       H     0.9899       0.3225       0.5241       0
H5       H     0.3225       0.5241       0.9899       0
H5       H     0.5241       0.3225       0.1635       0
H5       H     0.1635       0.9899       0.5241       0
H5       H     0.9899       0.1635       0.3225       0
H5       H     0.3225       0.1635       0.5241       0
H5       H     0.5241       0.9899       0.3225       0
H5       H     0.1635       0.3225       0.9899       0
H5       H     0.9899       0.5241       0.1635       0
H5       H     0.5241       0.9899       0.1635       0
H5       H     0.3225       0.1635       0.9899       0
H5       H     0.9899       0.5241       0.3225       0
H5       H     0.1635       0.3225       0.5241       0
H5       H     0.1635       0.5241       0.9899       0
H5       H     0.9899       0.3225       0.1635       0
H5       H     0.3225       0.9899       0.5241       0
H5       H     0.5241       0.1635       0.3225       0
H5       H     0.9899       0.1635       0.5241       0
H5       H     0.1635       0.9899       0.3225       0
H5       H     0.5241       0.3225       0.9899       0
H5       H     0.3225       0.5241       0.1635       0
H5       H     0.6775       0.0101       0.8365       0
H5       H     0.4759       0.8365       0.0101       0
H5       H     0.8365       0.4759       0.6775       0
H5       H     0.0101       0.6775       0.4759       0
H5       H     0.6775       0.4759       0.0101       0
H5       H     0.4759       0.6775       0.8365       0
H5       H     0.8365       0.0101       0.4759       0
H5       H     0.0101       0.8365       0.6775       0
H5       H     0.6775       0.8365       0.4759       0
H5       H     0.4759       0.0101       0.6775       0
H5       H     0.8365       0.6775       0.0101       0
H5       H     0.0101       0.4759       0.8365       0
H9       H     0.9896       0.4538       0.8248       0
H9       H     0.8248       0.7318       0.4538       0
H9       H     0.8248       0.4538       0.9896       0
H9       H     0.9896       0.7318       0.8248       0
H9       H     0.7318       0.9896       0.4538       0
H9       H     0.4538       0.8248       0.7318       0
H9       H     0.9896       0.8248       0.4538       0
H9       H     0.8248       0.9896       0.7318       0
H9       H     0.4538       0.7318       0.9896       0
H9       H     0.7318       0.4538       0.8248       0
H9       H     0.2682       0.0104       0.1752       0
H9       H     0.5462       0.1752       0.0104       0
H9       H     0.7318       0.8248       0.9896       0
H9       H     0.1752       0.5462       0.2682       0
H9       H     0.0104       0.2682       0.5462       0
H9       H     0.2682       0.5462       0.0104       0
H9       H     0.5462       0.2682       0.1752       0
H9       H     0.1752       0.0104       0.5462       0
H9       H     0.0104       0.1752       0.2682       0
H9       H     0.2682       0.1752       0.5462       0
H9       H     0.5462       0.0104       0.2682       0
H9       H     0.1752       0.2682       0.0104       0
H9       H     0.0104       0.5462       0.1752       0
H9       H     0.5462       0.0104       0.1752       0
H9       H     0.4538       0.9896       0.8248       0
H9       H     0.2682       0.1752       0.0104       0
H9       H     0.0104       0.5462       0.2682       0
H9       H     0.1752       0.2682       0.5462       0
H9       H     0.1752       0.5462       0.0104       0
H9       H     0.0104       0.2682       0.1752       0
H9       H     0.2682       0.0104       0.5462       0
H9       H     0.5462       0.1752       0.2682       0
H9       H     0.0104       0.1752       0.5462       0
H9       H     0.1752       0.0104       0.2682       0
H9       H     0.5462       0.2682       0.0104       0
H9       H     0.2682       0.5462       0.1752       0
H9       H     0.7318       0.9896       0.8248       0
H9       H     0.4538       0.8248       0.9896       0
H9       H     0.8248       0.4538       0.7318       0
H9       H     0.9896       0.7318       0.4538       0
H9       H     0.7318       0.4538       0.9896       0
H9       H     0.4538       0.7318       0.8248       0
H9       H     0.8248       0.9896       0.4538       0
H9       H     0.9896       0.8248       0.7318       0
H9       H     0.7318       0.8248       0.4538       0
H9       H     0.4538       0.9896       0.7318       0
H9       H     0.8248       0.7318       0.9896       0
H9       H     0.9896       0.4538       0.7318       0
H13      H     0.273        0.9218       0.273        0
H13      H     0.4678       0.0782       0.727        0
H13      H     0.727        0.727        0.0782       0
H13      H     0.0782       0.4678       0.727        0
H13      H     0.727        0.727        0.4678       0
H13      H     0.727        0.4678       0.0782       0
H13      H     0.0782       0.727        0.727        0
H13      H     0.727        0.0782       0.4678       0
H13      H     0.4678       0.727        0.727        0
H13      H     0.0782       0.727        0.4678       0
H13      H     0.727        0.0782       0.727        0
H13      H     0.4678       0.727        0.0782       0
H13      H     0.727        0.4678       0.727        0
H13      H     0.5322       0.273        0.9218       0
H13      H     0.273        0.5322       0.273        0
H13      H     0.9218       0.273        0.5322       0
H13      H     0.273        0.5322       0.9218       0
H13      H     0.5322       0.273        0.273        0
H13      H     0.273        0.9218       0.5322       0
H13      H     0.9218       0.273        0.273        0
H13      H     0.273        0.273        0.5322       0
H13      H     0.5322       0.9218       0.273        0
H13      H     0.273        0.273        0.9218       0
H13      H     0.9218       0.5322       0.273        0
H17      H     0.1148       0.5698       0.2006       0
H17      H     0.8852       0.7994       0.8852       0
H17      H     0.8852       0.4302       0.8852       0
H17      H     0.7994       0.8852       0.4302       0
H17      H     0.7994       0.4302       0.8852       0
H17      H     0.8852       0.8852       0.7994       0
H17      H     0.8852       0.8852       0.4302       0
H17      H     0.4302       0.7994       0.8852       0
H17      H     0.8852       0.7994       0.4302       0
H17      H     0.7994       0.8852       0.8852       0
H17      H     0.4302       0.8852       0.8852       0
H17      H     0.8852       0.4302       0.7994       0
H17      H     0.1148       0.1148       0.2006       0
H17      H     0.5698       0.2006       0.1148       0
H17      H     0.2006       0.5698       0.1148       0
H17      H     0.1148       0.1148       0.5698       0
H17      H     0.1148       0.5698       0.1148       0
H17      H     0.5698       0.1148       0.2006       0
H17      H     0.2006       0.1148       0.5698       0
H17      H     0.1148       0.2006       0.1148       0
H17      H     0.1148       0.2006       0.5698       0
H17      H     0.5698       0.1148       0.1148       0
H17      H     0.2006       0.1148       0.1148       0
H17      H     0.4302       0.8852       0.7994       0
O1       O     0.5087       0.9164       0.126        0
O1       O     0.4913       0.0836       0.874        0
O1       O     0.5511       0.874        0.0836       0
O1       O     0.0836       0.4913       0.5511       0
O1       O     0.874        0.5511       0.4913       0
O1       O     0.874        0.4913       0.0836       0
O1       O     0.0836       0.5511       0.874        0
O1       O     0.5511       0.0836       0.4913       0
O1       O     0.4913       0.874        0.5511       0
O1       O     0.0836       0.874        0.4913       0
O1       O     0.874        0.0836       0.5511       0
O1       O     0.4913       0.5511       0.0836       0
O1       O     0.5511       0.4913       0.874        0
O1       O     0.4489       0.9164       0.126        0
O1       O     0.5087       0.126        0.9164       0
O1       O     0.126        0.5087       0.4489       0
O1       O     0.9164       0.4489       0.5087       0
O1       O     0.4489       0.5087       0.9164       0
O1       O     0.5087       0.4489       0.126        0
O1       O     0.126        0.9164       0.5087       0
O1       O     0.9164       0.126        0.4489       0
O1       O     0.4489       0.126        0.5087       0
O1       O     0.5087       0.9164       0.4489       0
O1       O     0.126        0.4489       0.9164       0
O1       O     0.9164       0.5087       0.126        0
O1       O     0.4489       0.126        0.9164       0
O1       O     0.9164       0.5087       0.4489       0
O1       O     0.126        0.4489       0.5087       0
O1       O     0.126        0.5087       0.9164       0
O1       O     0.9164       0.4489       0.126        0
O1       O     0.4489       0.9164       0.5087       0
O1       O     0.5087       0.126        0.4489       0
O1       O     0.9164       0.126        0.5087       0
O1       O     0.126        0.9164       0.4489       0
O1       O     0.5087       0.4489       0.9164       0
O1       O     0.4489       0.5087       0.126        0
O1       O     0.5511       0.0836       0.874        0
O1       O     0.4913       0.874        0.0836       0
O1       O     0.874        0.4913       0.5511       0
O1       O     0.0836       0.5511       0.4913       0
O1       O     0.5511       0.4913       0.0836       0
O1       O     0.4913       0.5511       0.874        0
O1       O     0.874        0.0836       0.4913       0
O1       O     0.0836       0.874        0.5511       0
O1       O     0.5511       0.874        0.4913       0
O1       O     0.4913       0.0836       0.5511       0
O1       O     0.874        0.5511       0.0836       0
O1       O     0.0836       0.4913       0.874        0
O2       O     0.1346       0.4931       0.8242       0
O2       O     0.5481       0.8242       0.1346       0
O2       O     0.1346       0.4931       0.5481       0
O2       O     0.8243       0.5481       0.4931       0
O2       O     0.8242       0.4931       0.1346       0
O2       O     0.1346       0.5481       0.8242       0
O2       O     0.5481       0.1346       0.4931       0
O2       O     0.4931       0.8243       0.5481       0
O2       O     0.1346       0.8242       0.4931       0
O2       O     0.8242       0.1346       0.5481       0
O2       O     0.4931       0.5481       0.1346       0
O2       O     0.5481       0.4931       0.8243       0
O2       O     0.4519       0.8654       0.1757       0
O2       O     0.5069       0.1757       0.8654       0
O2       O     0.1757       0.5069       0.4519       0
O2       O     0.8655       0.4519       0.5069       0
O2       O     0.4519       0.5069       0.8655       0
O2       O     0.5069       0.4519       0.1757       0
O2       O     0.1757       0.8654       0.5069       0
O2       O     0.8654       0.1757       0.4519       0
O2       O     0.4519       0.1757       0.5069       0
O2       O     0.5069       0.8655       0.4519       0
O2       O     0.1757       0.4519       0.8654       0
O2       O     0.8654       0.5069       0.1757       0
O2       O     0.5069       0.8654       0.1757       0
O2       O     0.4519       0.1757       0.8654       0
O2       O     0.8655       0.5069       0.4519       0
O2       O     0.1757       0.4519       0.5069       0
O2       O     0.1757       0.5069       0.8654       0
O2       O     0.8654       0.4519       0.1757       0
O2       O     0.4519       0.8655       0.5069       0
O2       O     0.5069       0.1757       0.4519       0
O2       O     0.8654       0.1757       0.5069       0
O2       O     0.1757       0.8654       0.4519       0
O2       O     0.5069       0.4519       0.8655       0
O2       O     0.4519       0.5069       0.1757       0
O2       O     0.5481       0.1346       0.8242       0
O2       O     0.4931       0.8242       0.1346       0
O2       O     0.8243       0.4931       0.5481       0
O2       O     0.1346       0.5481       0.4931       0
O2       O     0.5481       0.4931       0.1346       0
O2       O     0.4931       0.5481       0.8243       0
O2       O     0.8242       0.1346       0.4931       0
O2       O     0.1346       0.8242       0.5481       0
O2       O     0.5481       0.8243       0.4931       0
O2       O     0.4931       0.1346       0.5481       0
O2       O     0.8242       0.5481       0.1346       0
O2       O     0.4931       0.1346       0.8242       0


