data_NU-100SP

_audit_creation_method RASPA-1.0
_audit_creation_date 2011-3-8
_audit_author_name 'Ozgur Yazaydin'

_citation_author_name        'O.K. Farha, A.O. Yazaydin, I. Eryazici, C.D. Malliakas, B.G. Hauser, and M.G. Kanatzidis, S.T. Nguyen, R.Q. Snurr, and J.T. Hupp'
_citation_title              'De novo synthesis of a metal-organic framework material featuring ultrahigh surface area and gas storage capacities'
_citation_journal_abbrev     'Nat. Chem.'
_citation_journal_volume     2
_citation_journal_number     11
_citation_page_first         944
_citation_page_last          948
_citation_year               2010

_cell_length_a    59.872
_cell_length_b    59.872
_cell_length_c    59.872
_cell_angle_alpha 90
_cell_angle_beta  90
_cell_angle_gamma 90
_cell_volume      214621

_symmetry_cell_setting          triclinic
_symmetry_space_group_name_Hall 'P 1'
_symmetry_space_group_name_H-M  'P 1'
_symmetry_Int_Tables_number     1

_symmetry_equiv_pos_as_xyz 'x,y,z'

loop_
_atom_site_label
_atom_site_type_symbol
_atom_site_fract_x
_atom_site_fract_y
_atom_site_fract_z
_atom_site_charge
O2       O      0.02317    0.08082    0.11324    0 
O2       O      0.02312    0.10685    0.13985    0 
C1       C      0.03027    0.0877     0.13198    0 
C2       C      0.04962    0.07793    0.14186    0 
C4       C      0.05763    0.0863     0.1622     0 
H2       H      0.0516     0.0992     0.1685     0 
C9       C      0.0925     0.1194     0.239      0 
H3       H      0.0816     0.127      0.2311     0 
C10      C      0.1008     0.1278     0.26       0 
H4       H      0.0947     0.1407     0.2661     0 
O2       O      0.02317    0.58082    0.61324    0 
O2       O      0.02312    0.60685    0.63985    0 
C1       C      0.03027    0.5877     0.63198    0 
C2       C      0.04962    0.57793    0.64186    0 
C4       C      0.05763    0.5863     0.6622     0 
H2       H      0.0516     0.5992     0.6685     0 
C9       C      0.0925     0.6194     0.739      0 
H3       H      0.0816     0.627      0.7311     0 
C10      C      0.1008     0.6278     0.76       0 
H4       H      0.0947     0.6407     0.7661     0 
O2       O      0.52317    0.08082    0.61324    0 
O2       O      0.52312    0.10685    0.63985    0 
C1       C      0.53027    0.0877     0.63198    0 
C2       C      0.54962    0.07793    0.64186    0 
C4       C      0.55763    0.0863     0.6622     0 
H2       H      0.5516     0.0992     0.6685     0 
C9       C      0.5925     0.1194     0.739      0 
H3       H      0.5816     0.127      0.7311     0 
C10      C      0.6008     0.1278     0.76       0 
H4       H      0.5947     0.1407     0.7661     0 
O2       O      0.52317    0.58082    0.11324    0 
O2       O      0.52312    0.60685    0.13985    0 
C1       C      0.53027    0.5877     0.13198    0 
C2       C      0.54962    0.57793    0.14186    0 
C4       C      0.55763    0.5863     0.1622     0 
H2       H      0.5516     0.5992     0.1685     0 
C9       C      0.5925     0.6194     0.239      0 
H3       H      0.5816     0.627      0.2311     0 
C10      C      0.6008     0.6278     0.26       0 
H4       H      0.5947     0.6407     0.2661     0 
O2       O      0.97683    0.91918    0.11324    0 
O2       O      0.97688    0.89315    0.13985    0 
C1       C      0.96973    0.9123     0.13198    0 
C2       C      0.95038    0.92207    0.14186    0 
C4       C      0.94237    0.9137     0.1622     0 
H2       H      0.9484     0.9008     0.1685     0 
C9       C      0.9075     0.8806     0.239      0 
H3       H      0.9184     0.873      0.2311     0 
C10      C      0.8992     0.8722     0.26       0 
H4       H      0.9053     0.8593     0.2661     0 
O2       O      0.97683    0.41918    0.61324    0 
O2       O      0.97688    0.39315    0.63985    0 
C1       C      0.96973    0.4123     0.63198    0 
C2       C      0.95038    0.42207    0.64186    0 
C4       C      0.94237    0.4137     0.6622     0 
H2       H      0.9484     0.4008     0.6685     0 
C9       C      0.9075     0.3806     0.739      0 
H3       H      0.9184     0.373      0.7311     0 
C10      C      0.8992     0.3722     0.76       0 
H4       H      0.9053     0.3593     0.7661     0 
O2       O      0.47683    0.91918    0.61324    0 
O2       O      0.47688    0.89315    0.63985    0 
C1       C      0.46973    0.9123     0.63198    0 
C2       C      0.45038    0.92207    0.64186    0 
C4       C      0.44237    0.9137     0.6622     0 
H2       H      0.4484     0.9008     0.6685     0 
C9       C      0.4075     0.8806     0.739      0 
H3       H      0.4184     0.873      0.7311     0 
C10      C      0.3992     0.8722     0.76       0 
H4       H      0.4053     0.8593     0.7661     0 
O2       O      0.47683    0.41918    0.11324    0 
O2       O      0.47688    0.39315    0.13985    0 
C1       C      0.46973    0.4123     0.13198    0 
C2       C      0.45038    0.42207    0.14186    0 
C4       C      0.44237    0.4137     0.1622     0 
H2       H      0.4484     0.4008     0.1685     0 
C9       C      0.4075     0.3806     0.239      0 
H3       H      0.4184     0.373      0.2311     0 
C10      C      0.3992     0.3722     0.26       0 
H4       H      0.4053     0.3593     0.2661     0 
O2       O      0.97683    0.08082    0.88676    0 
O2       O      0.97688    0.10685    0.86015    0 
C1       C      0.96973    0.0877     0.86802    0 
C2       C      0.95038    0.07793    0.85814    0 
C4       C      0.94237    0.0863     0.8378     0 
H2       H      0.9484     0.0992     0.8315     0 
C9       C      0.9075     0.1194     0.761      0 
H3       H      0.9184     0.127      0.7689     0 
C10      C      0.8992     0.1278     0.74       0 
H4       H      0.9053     0.1407     0.7339     0 
O2       O      0.97683    0.58082    0.38676    0 
O2       O      0.97688    0.60685    0.36015    0 
C1       C      0.96973    0.5877     0.36802    0 
C2       C      0.95038    0.57793    0.35814    0 
C4       C      0.94237    0.5863     0.3378     0 
H2       H      0.9484     0.5992     0.3315     0 
C9       C      0.9075     0.6194     0.261      0 
H3       H      0.9184     0.627      0.2689     0 
C10      C      0.8992     0.6278     0.24       0 
H4       H      0.9053     0.6407     0.2339     0 
O2       O      0.47683    0.08082    0.38676    0 
O2       O      0.47688    0.10685    0.36015    0 
C1       C      0.46973    0.0877     0.36802    0 
C2       C      0.45038    0.07793    0.35814    0 
C4       C      0.44237    0.0863     0.3378     0 
H2       H      0.4484     0.0992     0.3315     0 
C9       C      0.4075     0.1194     0.261      0 
H3       H      0.4184     0.127      0.2689     0 
C10      C      0.3992     0.1278     0.24       0 
H4       H      0.4053     0.1407     0.2339     0 
O2       O      0.47683    0.58082    0.88676    0 
O2       O      0.47688    0.60685    0.86015    0 
C1       C      0.46973    0.5877     0.86802    0 
C2       C      0.45038    0.57793    0.85814    0 
C4       C      0.44237    0.5863     0.8378     0 
H2       H      0.4484     0.5992     0.8315     0 
C9       C      0.4075     0.6194     0.761      0 
H3       H      0.4184     0.627      0.7689     0 
C10      C      0.3992     0.6278     0.74       0 
H4       H      0.4053     0.6407     0.7339     0 
O2       O      0.02317    0.91918    0.88676    0 
O2       O      0.02312    0.89315    0.86015    0 
C1       C      0.03027    0.9123     0.86802    0 
C2       C      0.04962    0.92207    0.85814    0 
C4       C      0.05763    0.9137     0.8378     0 
H2       H      0.0516     0.9008     0.8315     0 
C9       C      0.0925     0.8806     0.761      0 
H3       H      0.0816     0.873      0.7689     0 
C10      C      0.1008     0.8722     0.74       0 
H4       H      0.0947     0.8593     0.7339     0 
O2       O      0.02317    0.41918    0.38676    0 
O2       O      0.02312    0.39315    0.36015    0 
C1       C      0.03027    0.4123     0.36802    0 
C2       C      0.04962    0.42207    0.35814    0 
C4       C      0.05763    0.4137     0.3378     0 
H2       H      0.0516     0.4008     0.3315     0 
C9       C      0.0925     0.3806     0.261      0 
H3       H      0.0816     0.373      0.2689     0 
C10      C      0.1008     0.3722     0.24       0 
H4       H      0.0947     0.3593     0.2339     0 
O2       O      0.52317    0.91918    0.38676    0 
O2       O      0.52312    0.89315    0.36015    0 
C1       C      0.53027    0.9123     0.36802    0 
C2       C      0.54962    0.92207    0.35814    0 
C4       C      0.55763    0.9137     0.3378     0 
H2       H      0.5516     0.9008     0.3315     0 
C9       C      0.5925     0.8806     0.261      0 
H3       H      0.5816     0.873      0.2689     0 
C10      C      0.6008     0.8722     0.24       0 
H4       H      0.5947     0.8593     0.2339     0 
O2       O      0.52317    0.41918    0.88676    0 
O2       O      0.52312    0.39315    0.86015    0 
C1       C      0.53027    0.4123     0.86802    0 
C2       C      0.54962    0.42207    0.85814    0 
C4       C      0.55763    0.4137     0.8378     0 
H2       H      0.5516     0.4008     0.8315     0 
C9       C      0.5925     0.3806     0.761      0 
H3       H      0.5816     0.373      0.7689     0 
C10      C      0.6008     0.3722     0.74       0 
H4       H      0.5947     0.3593     0.7339     0 
O2       O      0.11324    0.02317    0.08082    0 
O2       O      0.13985    0.02312    0.10685    0 
C1       C      0.13198    0.03027    0.0877     0 
C2       C      0.14186    0.04962    0.07793    0 
C4       C      0.1622     0.05763    0.0863     0 
H2       H      0.1685     0.0516     0.0992     0 
C9       C      0.239      0.0925     0.1194     0 
H3       H      0.2311     0.0816     0.127      0 
C10      C      0.26       0.1008     0.1278     0 
H4       H      0.2661     0.0947     0.1407     0 
O2       O      0.11324    0.52317    0.58082    0 
O2       O      0.13985    0.52312    0.60685    0 
C1       C      0.13198    0.53027    0.5877     0 
C2       C      0.14186    0.54962    0.57793    0 
C4       C      0.1622     0.55763    0.5863     0 
H2       H      0.1685     0.5516     0.5992     0 
C9       C      0.239      0.5925     0.6194     0 
H3       H      0.2311     0.5816     0.627      0 
C10      C      0.26       0.6008     0.6278     0 
H4       H      0.2661     0.5947     0.6407     0 
O2       O      0.61324    0.02317    0.58082    0 
O2       O      0.63985    0.02312    0.60685    0 
C1       C      0.63198    0.03027    0.5877     0 
C2       C      0.64186    0.04962    0.57793    0 
C4       C      0.6622     0.05763    0.5863     0 
H2       H      0.6685     0.0516     0.5992     0 
C9       C      0.739      0.0925     0.6194     0 
H3       H      0.7311     0.0816     0.627      0 
C10      C      0.76       0.1008     0.6278     0 
H4       H      0.7661     0.0947     0.6407     0 
O2       O      0.61324    0.52317    0.08082    0 
O2       O      0.63985    0.52312    0.10685    0 
C1       C      0.63198    0.53027    0.0877     0 
C2       C      0.64186    0.54962    0.07793    0 
C4       C      0.6622     0.55763    0.0863     0 
H2       H      0.6685     0.5516     0.0992     0 
C9       C      0.739      0.5925     0.1194     0 
H3       H      0.7311     0.5816     0.127      0 
C10      C      0.76       0.6008     0.1278     0 
H4       H      0.7661     0.5947     0.1407     0 
O2       O      0.11324    0.97683    0.91918    0 
O2       O      0.13985    0.97688    0.89315    0 
C1       C      0.13198    0.96973    0.9123     0 
C2       C      0.14186    0.95038    0.92207    0 
C4       C      0.1622     0.94237    0.9137     0 
H2       H      0.1685     0.9484     0.9008     0 
C9       C      0.239      0.9075     0.8806     0 
H3       H      0.2311     0.9184     0.873      0 
C10      C      0.26       0.8992     0.8722     0 
H4       H      0.2661     0.9053     0.8593     0 
O2       O      0.11324    0.47683    0.41918    0 
O2       O      0.13985    0.47688    0.39315    0 
C1       C      0.13198    0.46973    0.4123     0 
C2       C      0.14186    0.45038    0.42207    0 
C4       C      0.1622     0.44237    0.4137     0 
H2       H      0.1685     0.4484     0.4008     0 
C9       C      0.239      0.4075     0.3806     0 
H3       H      0.2311     0.4184     0.373      0 
C10      C      0.26       0.3992     0.3722     0 
H4       H      0.2661     0.4053     0.3593     0 
O2       O      0.61324    0.97683    0.41918    0 
O2       O      0.63985    0.97688    0.39315    0 
C1       C      0.63198    0.96973    0.4123     0 
C2       C      0.64186    0.95038    0.42207    0 
C4       C      0.6622     0.94237    0.4137     0 
H2       H      0.6685     0.9484     0.4008     0 
C9       C      0.739      0.9075     0.3806     0 
H3       H      0.7311     0.9184     0.373      0 
C10      C      0.76       0.8992     0.3722     0 
H4       H      0.7661     0.9053     0.3593     0 
O2       O      0.61324    0.47683    0.91918    0 
O2       O      0.63985    0.47688    0.89315    0 
C1       C      0.63198    0.46973    0.9123     0 
C2       C      0.64186    0.45038    0.92207    0 
C4       C      0.6622     0.44237    0.9137     0 
H2       H      0.6685     0.4484     0.9008     0 
C9       C      0.739      0.4075     0.8806     0 
H3       H      0.7311     0.4184     0.873      0 
C10      C      0.76       0.3992     0.8722     0 
H4       H      0.7661     0.4053     0.8593     0 
O2       O      0.88676    0.97683    0.08082    0 
O2       O      0.86015    0.97688    0.10685    0 
C1       C      0.86802    0.96973    0.0877     0 
C2       C      0.85814    0.95038    0.07793    0 
C4       C      0.8378     0.94237    0.0863     0 
H2       H      0.8315     0.9484     0.0992     0 
C9       C      0.761      0.9075     0.1194     0 
H3       H      0.7689     0.9184     0.127      0 
C10      C      0.74       0.8992     0.1278     0 
H4       H      0.7339     0.9053     0.1407     0 
O2       O      0.88676    0.47683    0.58082    0 
O2       O      0.86015    0.47688    0.60685    0 
C1       C      0.86802    0.46973    0.5877     0 
C2       C      0.85814    0.45038    0.57793    0 
C4       C      0.8378     0.44237    0.5863     0 
H2       H      0.8315     0.4484     0.5992     0 
C9       C      0.761      0.4075     0.6194     0 
H3       H      0.7689     0.4184     0.627      0 
C10      C      0.74       0.3992     0.6278     0 
H4       H      0.7339     0.4053     0.6407     0 
O2       O      0.38676    0.97683    0.58082    0 
O2       O      0.36015    0.97688    0.60685    0 
C1       C      0.36802    0.96973    0.5877     0 
C2       C      0.35814    0.95038    0.57793    0 
C4       C      0.3378     0.94237    0.5863     0 
H2       H      0.3315     0.9484     0.5992     0 
C9       C      0.261      0.9075     0.6194     0 
H3       H      0.2689     0.9184     0.627      0 
C10      C      0.24       0.8992     0.6278     0 
H4       H      0.2339     0.9053     0.6407     0 
O2       O      0.38676    0.47683    0.08082    0 
O2       O      0.36015    0.47688    0.10685    0 
C1       C      0.36802    0.46973    0.0877     0 
C2       C      0.35814    0.45038    0.07793    0 
C4       C      0.3378     0.44237    0.0863     0 
H2       H      0.3315     0.4484     0.0992     0 
C9       C      0.261      0.4075     0.1194     0 
H3       H      0.2689     0.4184     0.127      0 
C10      C      0.24       0.3992     0.1278     0 
H4       H      0.2339     0.4053     0.1407     0 
O2       O      0.88676    0.02317    0.91918    0 
O2       O      0.86015    0.02312    0.89315    0 
C1       C      0.86802    0.03027    0.9123     0 
C2       C      0.85814    0.04962    0.92207    0 
C4       C      0.8378     0.05763    0.9137     0 
H2       H      0.8315     0.0516     0.9008     0 
C9       C      0.761      0.0925     0.8806     0 
H3       H      0.7689     0.0816     0.873      0 
C10      C      0.74       0.1008     0.8722     0 
H4       H      0.7339     0.0947     0.8593     0 
O2       O      0.88676    0.52317    0.41918    0 
O2       O      0.86015    0.52312    0.39315    0 
C1       C      0.86802    0.53027    0.4123     0 
C2       C      0.85814    0.54962    0.42207    0 
C4       C      0.8378     0.55763    0.4137     0 
H2       H      0.8315     0.5516     0.4008     0 
C9       C      0.761      0.5925     0.3806     0 
H3       H      0.7689     0.5816     0.373      0 
C10      C      0.74       0.6008     0.3722     0 
H4       H      0.7339     0.5947     0.3593     0 
O2       O      0.38676    0.02317    0.41918    0 
O2       O      0.36015    0.02312    0.39315    0 
C1       C      0.36802    0.03027    0.4123     0 
C2       C      0.35814    0.04962    0.42207    0 
C4       C      0.3378     0.05763    0.4137     0 
H2       H      0.3315     0.0516     0.4008     0 
C9       C      0.261      0.0925     0.3806     0 
H3       H      0.2689     0.0816     0.373      0 
C10      C      0.24       0.1008     0.3722     0 
H4       H      0.2339     0.0947     0.3593     0 
O2       O      0.38676    0.52317    0.91918    0 
O2       O      0.36015    0.52312    0.89315    0 
C1       C      0.36802    0.53027    0.9123     0 
C2       C      0.35814    0.54962    0.92207    0 
C4       C      0.3378     0.55763    0.9137     0 
H2       H      0.3315     0.5516     0.9008     0 
C9       C      0.261      0.5925     0.8806     0 
H3       H      0.2689     0.5816     0.873      0 
C10      C      0.24       0.6008     0.8722     0 
H4       H      0.2339     0.5947     0.8593     0 
O2       O      0.08082    0.11324    0.02317    0 
O2       O      0.10685    0.13985    0.02312    0 
C1       C      0.0877     0.13198    0.03027    0 
C2       C      0.07793    0.14186    0.04962    0 
C4       C      0.0863     0.1622     0.05763    0 
H2       H      0.0992     0.1685     0.0516     0 
C9       C      0.1194     0.239      0.0925     0 
H3       H      0.127      0.2311     0.0816     0 
C10      C      0.1278     0.26       0.1008     0 
H4       H      0.1407     0.2661     0.0947     0 
O2       O      0.08082    0.61324    0.52317    0 
O2       O      0.10685    0.63985    0.52312    0 
C1       C      0.0877     0.63198    0.53027    0 
C2       C      0.07793    0.64186    0.54962    0 
C4       C      0.0863     0.6622     0.55763    0 
H2       H      0.0992     0.6685     0.5516     0 
C9       C      0.1194     0.739      0.5925     0 
H3       H      0.127      0.7311     0.5816     0 
C10      C      0.1278     0.76       0.6008     0 
H4       H      0.1407     0.7661     0.5947     0 
O2       O      0.58082    0.11324    0.52317    0 
O2       O      0.60685    0.13985    0.52312    0 
C1       C      0.5877     0.13198    0.53027    0 
C2       C      0.57793    0.14186    0.54962    0 
C4       C      0.5863     0.1622     0.55763    0 
H2       H      0.5992     0.1685     0.5516     0 
C9       C      0.6194     0.239      0.5925     0 
H3       H      0.627      0.2311     0.5816     0 
C10      C      0.6278     0.26       0.6008     0 
H4       H      0.6407     0.2661     0.5947     0 
O2       O      0.58082    0.61324    0.02317    0 
O2       O      0.60685    0.63985    0.02312    0 
C1       C      0.5877     0.63198    0.03027    0 
C2       C      0.57793    0.64186    0.04962    0 
C4       C      0.5863     0.6622     0.05763    0 
H2       H      0.5992     0.6685     0.0516     0 
C9       C      0.6194     0.739      0.0925     0 
H3       H      0.627      0.7311     0.0816     0 
C10      C      0.6278     0.76       0.1008     0 
H4       H      0.6407     0.7661     0.0947     0 
O2       O      0.91918    0.11324    0.97683    0 
O2       O      0.89315    0.13985    0.97688    0 
C1       C      0.9123     0.13198    0.96973    0 
C2       C      0.92207    0.14186    0.95038    0 
C4       C      0.9137     0.1622     0.94237    0 
H2       H      0.9008     0.1685     0.9484     0 
C9       C      0.8806     0.239      0.9075     0 
H3       H      0.873      0.2311     0.9184     0 
C10      C      0.8722     0.26       0.8992     0 
H4       H      0.8593     0.2661     0.9053     0 
O2       O      0.91918    0.61324    0.47683    0 
O2       O      0.89315    0.63985    0.47688    0 
C1       C      0.9123     0.63198    0.46973    0 
C2       C      0.92207    0.64186    0.45038    0 
C4       C      0.9137     0.6622     0.44237    0 
H2       H      0.9008     0.6685     0.4484     0 
C9       C      0.8806     0.739      0.4075     0 
H3       H      0.873      0.7311     0.4184     0 
C10      C      0.8722     0.76       0.3992     0 
H4       H      0.8593     0.7661     0.4053     0 
O2       O      0.41918    0.11324    0.47683    0 
O2       O      0.39315    0.13985    0.47688    0 
C1       C      0.4123     0.13198    0.46973    0 
C2       C      0.42207    0.14186    0.45038    0 
C4       C      0.4137     0.1622     0.44237    0 
H2       H      0.4008     0.1685     0.4484     0 
C9       C      0.3806     0.239      0.4075     0 
H3       H      0.373      0.2311     0.4184     0 
C10      C      0.3722     0.26       0.3992     0 
H4       H      0.3593     0.2661     0.4053     0 
O2       O      0.41918    0.61324    0.97683    0 
O2       O      0.39315    0.63985    0.97688    0 
C1       C      0.4123     0.63198    0.96973    0 
C2       C      0.42207    0.64186    0.95038    0 
C4       C      0.4137     0.6622     0.94237    0 
H2       H      0.4008     0.6685     0.9484     0 
C9       C      0.3806     0.739      0.9075     0 
H3       H      0.373      0.7311     0.9184     0 
C10      C      0.3722     0.76       0.8992     0 
H4       H      0.3593     0.7661     0.9053     0 
O2       O      0.08082    0.88676    0.97683    0 
O2       O      0.10685    0.86015    0.97688    0 
C1       C      0.0877     0.86802    0.96973    0 
C2       C      0.07793    0.85814    0.95038    0 
C4       C      0.0863     0.8378     0.94237    0 
H2       H      0.0992     0.8315     0.9484     0 
C9       C      0.1194     0.761      0.9075     0 
H3       H      0.127      0.7689     0.9184     0 
C10      C      0.1278     0.74       0.8992     0 
H4       H      0.1407     0.7339     0.9053     0 
O2       O      0.08082    0.38676    0.47683    0 
O2       O      0.10685    0.36015    0.47688    0 
C1       C      0.0877     0.36802    0.46973    0 
C2       C      0.07793    0.35814    0.45038    0 
C4       C      0.0863     0.3378     0.44237    0 
H2       H      0.0992     0.3315     0.4484     0 
C9       C      0.1194     0.261      0.4075     0 
H3       H      0.127      0.2689     0.4184     0 
C10      C      0.1278     0.24       0.3992     0 
H4       H      0.1407     0.2339     0.4053     0 
O2       O      0.58082    0.88676    0.47683    0 
O2       O      0.60685    0.86015    0.47688    0 
C1       C      0.5877     0.86802    0.46973    0 
C2       C      0.57793    0.85814    0.45038    0 
C4       C      0.5863     0.8378     0.44237    0 
H2       H      0.5992     0.8315     0.4484     0 
C9       C      0.6194     0.761      0.4075     0 
H3       H      0.627      0.7689     0.4184     0 
C10      C      0.6278     0.74       0.3992     0 
H4       H      0.6407     0.7339     0.4053     0 
O2       O      0.58082    0.38676    0.97683    0 
O2       O      0.60685    0.36015    0.97688    0 
C1       C      0.5877     0.36802    0.96973    0 
C2       C      0.57793    0.35814    0.95038    0 
C4       C      0.5863     0.3378     0.94237    0 
H2       H      0.5992     0.3315     0.9484     0 
C9       C      0.6194     0.261      0.9075     0 
H3       H      0.627      0.2689     0.9184     0 
C10      C      0.6278     0.24       0.8992     0 
H4       H      0.6407     0.2339     0.9053     0 
O2       O      0.91918    0.88676    0.02317    0 
O2       O      0.89315    0.86015    0.02312    0 
C1       C      0.9123     0.86802    0.03027    0 
C2       C      0.92207    0.85814    0.04962    0 
C4       C      0.9137     0.8378     0.05763    0 
H2       H      0.9008     0.8315     0.0516     0 
C9       C      0.8806     0.761      0.0925     0 
H3       H      0.873      0.7689     0.0816     0 
C10      C      0.8722     0.74       0.1008     0 
H4       H      0.8593     0.7339     0.0947     0 
O2       O      0.91918    0.38676    0.52317    0 
O2       O      0.89315    0.36015    0.52312    0 
C1       C      0.9123     0.36802    0.53027    0 
C2       C      0.92207    0.35814    0.54962    0 
C4       C      0.9137     0.3378     0.55763    0 
H2       H      0.9008     0.3315     0.5516     0 
C9       C      0.8806     0.261      0.5925     0 
H3       H      0.873      0.2689     0.5816     0 
C10      C      0.8722     0.24       0.6008     0 
H4       H      0.8593     0.2339     0.5947     0 
O2       O      0.41918    0.88676    0.52317    0 
O2       O      0.39315    0.86015    0.52312    0 
C1       C      0.4123     0.86802    0.53027    0 
C2       C      0.42207    0.85814    0.54962    0 
C4       C      0.4137     0.8378     0.55763    0 
H2       H      0.4008     0.8315     0.5516     0 
C9       C      0.3806     0.761      0.5925     0 
H3       H      0.373      0.7689     0.5816     0 
C10      C      0.3722     0.74       0.6008     0 
H4       H      0.3593     0.7339     0.5947     0 
O2       O      0.41918    0.38676    0.02317    0 
O2       O      0.39315    0.36015    0.02312    0 
C1       C      0.4123     0.36802    0.03027    0 
C2       C      0.42207    0.35814    0.04962    0 
C4       C      0.4137     0.3378     0.05763    0 
H2       H      0.4008     0.3315     0.0516     0 
C9       C      0.3806     0.261      0.0925     0 
H3       H      0.373      0.2689     0.0816     0 
C10      C      0.3722     0.24       0.1008     0 
H4       H      0.3593     0.2339     0.0947     0 
O2       O      0.08082    0.02317    0.88676    0 
O2       O      0.10685    0.02312    0.86015    0 
C1       C      0.0877     0.03027    0.86802    0 
C2       C      0.07793    0.04962    0.85814    0 
C4       C      0.0863     0.05763    0.8378     0 
H2       H      0.0992     0.0516     0.8315     0 
C9       C      0.1194     0.0925     0.761      0 
H3       H      0.127      0.0816     0.7689     0 
C10      C      0.1278     0.1008     0.74       0 
H4       H      0.1407     0.0947     0.7339     0 
O2       O      0.08082    0.52317    0.38676    0 
O2       O      0.10685    0.52312    0.36015    0 
C1       C      0.0877     0.53027    0.36802    0 
C2       C      0.07793    0.54962    0.35814    0 
C4       C      0.0863     0.55763    0.3378     0 
H2       H      0.0992     0.5516     0.3315     0 
C9       C      0.1194     0.5925     0.261      0 
H3       H      0.127      0.5816     0.2689     0 
C10      C      0.1278     0.6008     0.24       0 
H4       H      0.1407     0.5947     0.2339     0 
O2       O      0.58082    0.02317    0.38676    0 
O2       O      0.60685    0.02312    0.36015    0 
C1       C      0.5877     0.03027    0.36802    0 
C2       C      0.57793    0.04962    0.35814    0 
C4       C      0.5863     0.05763    0.3378     0 
H2       H      0.5992     0.0516     0.3315     0 
C9       C      0.6194     0.0925     0.261      0 
H3       H      0.627      0.0816     0.2689     0 
C10      C      0.6278     0.1008     0.24       0 
H4       H      0.6407     0.0947     0.2339     0 
O2       O      0.58082    0.52317    0.88676    0 
O2       O      0.60685    0.52312    0.86015    0 
C1       C      0.5877     0.53027    0.86802    0 
C2       C      0.57793    0.54962    0.85814    0 
C4       C      0.5863     0.55763    0.8378     0 
H2       H      0.5992     0.5516     0.8315     0 
C9       C      0.6194     0.5925     0.761      0 
H3       H      0.627      0.5816     0.7689     0 
C10      C      0.6278     0.6008     0.74       0 
H4       H      0.6407     0.5947     0.7339     0 
O2       O      0.91918    0.97683    0.88676    0 
O2       O      0.89315    0.97688    0.86015    0 
C1       C      0.9123     0.96973    0.86802    0 
C2       C      0.92207    0.95038    0.85814    0 
C4       C      0.9137     0.94237    0.8378     0 
H2       H      0.9008     0.9484     0.8315     0 
C9       C      0.8806     0.9075     0.761      0 
H3       H      0.873      0.9184     0.7689     0 
C10      C      0.8722     0.8992     0.74       0 
H4       H      0.8593     0.9053     0.7339     0 
O2       O      0.91918    0.47683    0.38676    0 
O2       O      0.89315    0.47688    0.36015    0 
C1       C      0.9123     0.46973    0.36802    0 
C2       C      0.92207    0.45038    0.35814    0 
C4       C      0.9137     0.44237    0.3378     0 
H2       H      0.9008     0.4484     0.3315     0 
C9       C      0.8806     0.4075     0.261      0 
H3       H      0.873      0.4184     0.2689     0 
C10      C      0.8722     0.3992     0.24       0 
H4       H      0.8593     0.4053     0.2339     0 
O2       O      0.41918    0.97683    0.38676    0 
O2       O      0.39315    0.97688    0.36015    0 
C1       C      0.4123     0.96973    0.36802    0 
C2       C      0.42207    0.95038    0.35814    0 
C4       C      0.4137     0.94237    0.3378     0 
H2       H      0.4008     0.9484     0.3315     0 
C9       C      0.3806     0.9075     0.261      0 
H3       H      0.373      0.9184     0.2689     0 
C10      C      0.3722     0.8992     0.24       0 
H4       H      0.3593     0.9053     0.2339     0 
O2       O      0.41918    0.47683    0.88676    0 
O2       O      0.39315    0.47688    0.86015    0 
C1       C      0.4123     0.46973    0.86802    0 
C2       C      0.42207    0.45038    0.85814    0 
C4       C      0.4137     0.44237    0.8378     0 
H2       H      0.4008     0.4484     0.8315     0 
C9       C      0.3806     0.4075     0.761      0 
H3       H      0.373      0.4184     0.7689     0 
C10      C      0.3722     0.3992     0.74       0 
H4       H      0.3593     0.4053     0.7339     0 
O2       O      0.08082    0.97683    0.11324    0 
O2       O      0.10685    0.97688    0.13985    0 
C1       C      0.0877     0.96973    0.13198    0 
C2       C      0.07793    0.95038    0.14186    0 
C4       C      0.0863     0.94237    0.1622     0 
H2       H      0.0992     0.9484     0.1685     0 
C9       C      0.1194     0.9075     0.239      0 
H3       H      0.127      0.9184     0.2311     0 
C10      C      0.1278     0.8992     0.26       0 
H4       H      0.1407     0.9053     0.2661     0 
O2       O      0.08082    0.47683    0.61324    0 
O2       O      0.10685    0.47688    0.63985    0 
C1       C      0.0877     0.46973    0.63198    0 
C2       C      0.07793    0.45038    0.64186    0 
C4       C      0.0863     0.44237    0.6622     0 
H2       H      0.0992     0.4484     0.6685     0 
C9       C      0.1194     0.4075     0.739      0 
H3       H      0.127      0.4184     0.7311     0 
C10      C      0.1278     0.3992     0.76       0 
H4       H      0.1407     0.4053     0.7661     0 
O2       O      0.58082    0.97683    0.61324    0 
O2       O      0.60685    0.97688    0.63985    0 
C1       C      0.5877     0.96973    0.63198    0 
C2       C      0.57793    0.95038    0.64186    0 
C4       C      0.5863     0.94237    0.6622     0 
H2       H      0.5992     0.9484     0.6685     0 
C9       C      0.6194     0.9075     0.739      0 
H3       H      0.627      0.9184     0.7311     0 
C10      C      0.6278     0.8992     0.76       0 
H4       H      0.6407     0.9053     0.7661     0 
O2       O      0.58082    0.47683    0.11324    0 
O2       O      0.60685    0.47688    0.13985    0 
C1       C      0.5877     0.46973    0.13198    0 
C2       C      0.57793    0.45038    0.14186    0 
C4       C      0.5863     0.44237    0.1622     0 
H2       H      0.5992     0.4484     0.1685     0 
C9       C      0.6194     0.4075     0.239      0 
H3       H      0.627      0.4184     0.2311     0 
C10      C      0.6278     0.3992     0.26       0 
H4       H      0.6407     0.4053     0.2661     0 
O2       O      0.91918    0.02317    0.11324    0 
O2       O      0.89315    0.02312    0.13985    0 
C1       C      0.9123     0.03027    0.13198    0 
C2       C      0.92207    0.04962    0.14186    0 
C4       C      0.9137     0.05763    0.1622     0 
H2       H      0.9008     0.0516     0.1685     0 
C9       C      0.8806     0.0925     0.239      0 
H3       H      0.873      0.0816     0.2311     0 
C10      C      0.8722     0.1008     0.26       0 
H4       H      0.8593     0.0947     0.2661     0 
O2       O      0.91918    0.52317    0.61324    0 
O2       O      0.89315    0.52312    0.63985    0 
C1       C      0.9123     0.53027    0.63198    0 
C2       C      0.92207    0.54962    0.64186    0 
C4       C      0.9137     0.55763    0.6622     0 
H2       H      0.9008     0.5516     0.6685     0 
C9       C      0.8806     0.5925     0.739      0 
H3       H      0.873      0.5816     0.7311     0 
C10      C      0.8722     0.6008     0.76       0 
H4       H      0.8593     0.5947     0.7661     0 
O2       O      0.41918    0.02317    0.61324    0 
O2       O      0.39315    0.02312    0.63985    0 
C1       C      0.4123     0.03027    0.63198    0 
C2       C      0.42207    0.04962    0.64186    0 
C4       C      0.4137     0.05763    0.6622     0 
H2       H      0.4008     0.0516     0.6685     0 
C9       C      0.3806     0.0925     0.739      0 
H3       H      0.373      0.0816     0.7311     0 
C10      C      0.3722     0.1008     0.76       0 
H4       H      0.3593     0.0947     0.7661     0 
O2       O      0.41918    0.52317    0.11324    0 
O2       O      0.39315    0.52312    0.13985    0 
C1       C      0.4123     0.53027    0.13198    0 
C2       C      0.42207    0.54962    0.14186    0 
C4       C      0.4137     0.55763    0.1622     0 
H2       H      0.4008     0.5516     0.1685     0 
C9       C      0.3806     0.5925     0.239      0 
H3       H      0.373      0.5816     0.2311     0 
C10      C      0.3722     0.6008     0.26       0 
H4       H      0.3593     0.5947     0.2661     0 
O2       O      0.02317    0.11324    0.91918    0 
O2       O      0.02312    0.13985    0.89315    0 
C1       C      0.03027    0.13198    0.9123     0 
C2       C      0.04962    0.14186    0.92207    0 
C4       C      0.05763    0.1622     0.9137     0 
H2       H      0.0516     0.1685     0.9008     0 
C9       C      0.0925     0.239      0.8806     0 
H3       H      0.0816     0.2311     0.873      0 
C10      C      0.1008     0.26       0.8722     0 
H4       H      0.0947     0.2661     0.8593     0 
O2       O      0.02317    0.61324    0.41918    0 
O2       O      0.02312    0.63985    0.39315    0 
C1       C      0.03027    0.63198    0.4123     0 
C2       C      0.04962    0.64186    0.42207    0 
C4       C      0.05763    0.6622     0.4137     0 
H2       H      0.0516     0.6685     0.4008     0 
C9       C      0.0925     0.739      0.3806     0 
H3       H      0.0816     0.7311     0.373      0 
C10      C      0.1008     0.76       0.3722     0 
H4       H      0.0947     0.7661     0.3593     0 
O2       O      0.52317    0.11324    0.41918    0 
O2       O      0.52312    0.13985    0.39315    0 
C1       C      0.53027    0.13198    0.4123     0 
C2       C      0.54962    0.14186    0.42207    0 
C4       C      0.55763    0.1622     0.4137     0 
H2       H      0.5516     0.1685     0.4008     0 
C9       C      0.5925     0.239      0.3806     0 
H3       H      0.5816     0.2311     0.373      0 
C10      C      0.6008     0.26       0.3722     0 
H4       H      0.5947     0.2661     0.3593     0 
O2       O      0.52317    0.61324    0.91918    0 
O2       O      0.52312    0.63985    0.89315    0 
C1       C      0.53027    0.63198    0.9123     0 
C2       C      0.54962    0.64186    0.92207    0 
C4       C      0.55763    0.6622     0.9137     0 
H2       H      0.5516     0.6685     0.9008     0 
C9       C      0.5925     0.739      0.8806     0 
H3       H      0.5816     0.7311     0.873      0 
C10      C      0.6008     0.76       0.8722     0 
H4       H      0.5947     0.7661     0.8593     0 
O2       O      0.97683    0.11324    0.08082    0 
O2       O      0.97688    0.13985    0.10685    0 
C1       C      0.96973    0.13198    0.0877     0 
C2       C      0.95038    0.14186    0.07793    0 
C4       C      0.94237    0.1622     0.0863     0 
H2       H      0.9484     0.1685     0.0992     0 
C9       C      0.9075     0.239      0.1194     0 
H3       H      0.9184     0.2311     0.127      0 
C10      C      0.8992     0.26       0.1278     0 
H4       H      0.9053     0.2661     0.1407     0 
O2       O      0.97683    0.61324    0.58082    0 
O2       O      0.97688    0.63985    0.60685    0 
C1       C      0.96973    0.63198    0.5877     0 
C2       C      0.95038    0.64186    0.57793    0 
C4       C      0.94237    0.6622     0.5863     0 
H2       H      0.9484     0.6685     0.5992     0 
C9       C      0.9075     0.739      0.6194     0 
H3       H      0.9184     0.7311     0.627      0 
C10      C      0.8992     0.76       0.6278     0 
H4       H      0.9053     0.7661     0.6407     0 
O2       O      0.47683    0.11324    0.58082    0 
O2       O      0.47688    0.13985    0.60685    0 
C1       C      0.46973    0.13198    0.5877     0 
C2       C      0.45038    0.14186    0.57793    0 
C4       C      0.44237    0.1622     0.5863     0 
H2       H      0.4484     0.1685     0.5992     0 
C9       C      0.4075     0.239      0.6194     0 
H3       H      0.4184     0.2311     0.627      0 
C10      C      0.3992     0.26       0.6278     0 
H4       H      0.4053     0.2661     0.6407     0 
O2       O      0.47683    0.61324    0.08082    0 
O2       O      0.47688    0.63985    0.10685    0 
C1       C      0.46973    0.63198    0.0877     0 
C2       C      0.45038    0.64186    0.07793    0 
C4       C      0.44237    0.6622     0.0863     0 
H2       H      0.4484     0.6685     0.0992     0 
C9       C      0.4075     0.739      0.1194     0 
H3       H      0.4184     0.7311     0.127      0 
C10      C      0.3992     0.76       0.1278     0 
H4       H      0.4053     0.7661     0.1407     0 
O2       O      0.97683    0.88676    0.91918    0 
O2       O      0.97688    0.86015    0.89315    0 
C1       C      0.96973    0.86802    0.9123     0 
C2       C      0.95038    0.85814    0.92207    0 
C4       C      0.94237    0.8378     0.9137     0 
H2       H      0.9484     0.8315     0.9008     0 
C9       C      0.9075     0.761      0.8806     0 
H3       H      0.9184     0.7689     0.873      0 
C10      C      0.8992     0.74       0.8722     0 
H4       H      0.9053     0.7339     0.8593     0 
O2       O      0.97683    0.38676    0.41918    0 
O2       O      0.97688    0.36015    0.39315    0 
C1       C      0.96973    0.36802    0.4123     0 
C2       C      0.95038    0.35814    0.42207    0 
C4       C      0.94237    0.3378     0.4137     0 
H2       H      0.9484     0.3315     0.4008     0 
C9       C      0.9075     0.261      0.3806     0 
H3       H      0.9184     0.2689     0.373      0 
C10      C      0.8992     0.24       0.3722     0 
H4       H      0.9053     0.2339     0.3593     0 
O2       O      0.47683    0.88676    0.41918    0 
O2       O      0.47688    0.86015    0.39315    0 
C1       C      0.46973    0.86802    0.4123     0 
C2       C      0.45038    0.85814    0.42207    0 
C4       C      0.44237    0.8378     0.4137     0 
H2       H      0.4484     0.8315     0.4008     0 
C9       C      0.4075     0.761      0.3806     0 
H3       H      0.4184     0.7689     0.373      0 
C10      C      0.3992     0.74       0.3722     0 
H4       H      0.4053     0.7339     0.3593     0 
O2       O      0.47683    0.38676    0.91918    0 
O2       O      0.47688    0.36015    0.89315    0 
C1       C      0.46973    0.36802    0.9123     0 
C2       C      0.45038    0.35814    0.92207    0 
C4       C      0.44237    0.3378     0.9137     0 
H2       H      0.4484     0.3315     0.9008     0 
C9       C      0.4075     0.261      0.8806     0 
H3       H      0.4184     0.2689     0.873      0 
C10      C      0.3992     0.24       0.8722     0 
H4       H      0.4053     0.2339     0.8593     0 
O2       O      0.02317    0.88676    0.08082    0 
O2       O      0.02312    0.86015    0.10685    0 
C1       C      0.03027    0.86802    0.0877     0 
C2       C      0.04962    0.85814    0.07793    0 
C4       C      0.05763    0.8378     0.0863     0 
H2       H      0.0516     0.8315     0.0992     0 
C9       C      0.0925     0.761      0.1194     0 
H3       H      0.0816     0.7689     0.127      0 
C10      C      0.1008     0.74       0.1278     0 
H4       H      0.0947     0.7339     0.1407     0 
O2       O      0.02317    0.38676    0.58082    0 
O2       O      0.02312    0.36015    0.60685    0 
C1       C      0.03027    0.36802    0.5877     0 
C2       C      0.04962    0.35814    0.57793    0 
C4       C      0.05763    0.3378     0.5863     0 
H2       H      0.0516     0.3315     0.5992     0 
C9       C      0.0925     0.261      0.6194     0 
H3       H      0.0816     0.2689     0.627      0 
C10      C      0.1008     0.24       0.6278     0 
H4       H      0.0947     0.2339     0.6407     0 
O2       O      0.52317    0.88676    0.58082    0 
O2       O      0.52312    0.86015    0.60685    0 
C1       C      0.53027    0.86802    0.5877     0 
C2       C      0.54962    0.85814    0.57793    0 
C4       C      0.55763    0.8378     0.5863     0 
H2       H      0.5516     0.8315     0.5992     0 
C9       C      0.5925     0.761      0.6194     0 
H3       H      0.5816     0.7689     0.627      0 
C10      C      0.6008     0.74       0.6278     0 
H4       H      0.5947     0.7339     0.6407     0 
O2       O      0.52317    0.38676    0.08082    0 
O2       O      0.52312    0.36015    0.10685    0 
C1       C      0.53027    0.36802    0.0877     0 
C2       C      0.54962    0.35814    0.07793    0 
C4       C      0.55763    0.3378     0.0863     0 
H2       H      0.5516     0.3315     0.0992     0 
C9       C      0.5925     0.261      0.1194     0 
H3       H      0.5816     0.2689     0.127      0 
C10      C      0.6008     0.24       0.1278     0 
H4       H      0.5947     0.2339     0.1407     0 
O2       O      0.11324    0.08082    0.97683    0 
O2       O      0.13985    0.10685    0.97688    0 
C1       C      0.13198    0.0877     0.96973    0 
C2       C      0.14186    0.07793    0.95038    0 
C4       C      0.1622     0.0863     0.94237    0 
H2       H      0.1685     0.0992     0.9484     0 
C9       C      0.239      0.1194     0.9075     0 
H3       H      0.2311     0.127      0.9184     0 
C10      C      0.26       0.1278     0.8992     0 
H4       H      0.2661     0.1407     0.9053     0 
O2       O      0.11324    0.58082    0.47683    0 
O2       O      0.13985    0.60685    0.47688    0 
C1       C      0.13198    0.5877     0.46973    0 
C2       C      0.14186    0.57793    0.45038    0 
C4       C      0.1622     0.5863     0.44237    0 
H2       H      0.1685     0.5992     0.4484     0 
C9       C      0.239      0.6194     0.4075     0 
H3       H      0.2311     0.627      0.4184     0 
C10      C      0.26       0.6278     0.3992     0 
H4       H      0.2661     0.6407     0.4053     0 
O2       O      0.61324    0.08082    0.47683    0 
O2       O      0.63985    0.10685    0.47688    0 
C1       C      0.63198    0.0877     0.46973    0 
C2       C      0.64186    0.07793    0.45038    0 
C4       C      0.6622     0.0863     0.44237    0 
H2       H      0.6685     0.0992     0.4484     0 
C9       C      0.739      0.1194     0.4075     0 
H3       H      0.7311     0.127      0.4184     0 
C10      C      0.76       0.1278     0.3992     0 
H4       H      0.7661     0.1407     0.4053     0 
O2       O      0.61324    0.58082    0.97683    0 
O2       O      0.63985    0.60685    0.97688    0 
C1       C      0.63198    0.5877     0.96973    0 
C2       C      0.64186    0.57793    0.95038    0 
C4       C      0.6622     0.5863     0.94237    0 
H2       H      0.6685     0.5992     0.9484     0 
C9       C      0.739      0.6194     0.9075     0 
H3       H      0.7311     0.627      0.9184     0 
C10      C      0.76       0.6278     0.8992     0 
H4       H      0.7661     0.6407     0.9053     0 
O2       O      0.11324    0.91918    0.02317    0 
O2       O      0.13985    0.89315    0.02312    0 
C1       C      0.13198    0.9123     0.03027    0 
C2       C      0.14186    0.92207    0.04962    0 
C4       C      0.1622     0.9137     0.05763    0 
H2       H      0.1685     0.9008     0.0516     0 
C9       C      0.239      0.8806     0.0925     0 
H3       H      0.2311     0.873      0.0816     0 
C10      C      0.26       0.8722     0.1008     0 
H4       H      0.2661     0.8593     0.0947     0 
O2       O      0.11324    0.41918    0.52317    0 
O2       O      0.13985    0.39315    0.52312    0 
C1       C      0.13198    0.4123     0.53027    0 
C2       C      0.14186    0.42207    0.54962    0 
C4       C      0.1622     0.4137     0.55763    0 
H2       H      0.1685     0.4008     0.5516     0 
C9       C      0.239      0.3806     0.5925     0 
H3       H      0.2311     0.373      0.5816     0 
C10      C      0.26       0.3722     0.6008     0 
H4       H      0.2661     0.3593     0.5947     0 
O2       O      0.61324    0.91918    0.52317    0 
O2       O      0.63985    0.89315    0.52312    0 
C1       C      0.63198    0.9123     0.53027    0 
C2       C      0.64186    0.92207    0.54962    0 
C4       C      0.6622     0.9137     0.55763    0 
H2       H      0.6685     0.9008     0.5516     0 
C9       C      0.739      0.8806     0.5925     0 
H3       H      0.7311     0.873      0.5816     0 
C10      C      0.76       0.8722     0.6008     0 
H4       H      0.7661     0.8593     0.5947     0 
O2       O      0.61324    0.41918    0.02317    0 
O2       O      0.63985    0.39315    0.02312    0 
C1       C      0.63198    0.4123     0.03027    0 
C2       C      0.64186    0.42207    0.04962    0 
C4       C      0.6622     0.4137     0.05763    0 
H2       H      0.6685     0.4008     0.0516     0 
C9       C      0.739      0.3806     0.0925     0 
H3       H      0.7311     0.373      0.0816     0 
C10      C      0.76       0.3722     0.1008     0 
H4       H      0.7661     0.3593     0.0947     0 
O2       O      0.88676    0.08082    0.02317    0 
O2       O      0.86015    0.10685    0.02312    0 
C1       C      0.86802    0.0877     0.03027    0 
C2       C      0.85814    0.07793    0.04962    0 
C4       C      0.8378     0.0863     0.05763    0 
H2       H      0.8315     0.0992     0.0516     0 
C9       C      0.761      0.1194     0.0925     0 
H3       H      0.7689     0.127      0.0816     0 
C10      C      0.74       0.1278     0.1008     0 
H4       H      0.7339     0.1407     0.0947     0 
O2       O      0.88676    0.58082    0.52317    0 
O2       O      0.86015    0.60685    0.52312    0 
C1       C      0.86802    0.5877     0.53027    0 
C2       C      0.85814    0.57793    0.54962    0 
C4       C      0.8378     0.5863     0.55763    0 
H2       H      0.8315     0.5992     0.5516     0 
C9       C      0.761      0.6194     0.5925     0 
H3       H      0.7689     0.627      0.5816     0 
C10      C      0.74       0.6278     0.6008     0 
H4       H      0.7339     0.6407     0.5947     0 
O2       O      0.38676    0.08082    0.52317    0 
O2       O      0.36015    0.10685    0.52312    0 
C1       C      0.36802    0.0877     0.53027    0 
C2       C      0.35814    0.07793    0.54962    0 
C4       C      0.3378     0.0863     0.55763    0 
H2       H      0.3315     0.0992     0.5516     0 
C9       C      0.261      0.1194     0.5925     0 
H3       H      0.2689     0.127      0.5816     0 
C10      C      0.24       0.1278     0.6008     0 
H4       H      0.2339     0.1407     0.5947     0 
O2       O      0.38676    0.58082    0.02317    0 
O2       O      0.36015    0.60685    0.02312    0 
C1       C      0.36802    0.5877     0.03027    0 
C2       C      0.35814    0.57793    0.04962    0 
C4       C      0.3378     0.5863     0.05763    0 
H2       H      0.3315     0.5992     0.0516     0 
C9       C      0.261      0.6194     0.0925     0 
H3       H      0.2689     0.627      0.0816     0 
C10      C      0.24       0.6278     0.1008     0 
H4       H      0.2339     0.6407     0.0947     0 
O2       O      0.88676    0.91918    0.97683    0 
O2       O      0.86015    0.89315    0.97688    0 
C1       C      0.86802    0.9123     0.96973    0 
C2       C      0.85814    0.92207    0.95038    0 
C4       C      0.8378     0.9137     0.94237    0 
H2       H      0.8315     0.9008     0.9484     0 
C9       C      0.761      0.8806     0.9075     0 
H3       H      0.7689     0.873      0.9184     0 
C10      C      0.74       0.8722     0.8992     0 
H4       H      0.7339     0.8593     0.9053     0 
O2       O      0.88676    0.41918    0.47683    0 
O2       O      0.86015    0.39315    0.47688    0 
C1       C      0.86802    0.4123     0.46973    0 
C2       C      0.85814    0.42207    0.45038    0 
C4       C      0.8378     0.4137     0.44237    0 
H2       H      0.8315     0.4008     0.4484     0 
C9       C      0.761      0.3806     0.4075     0 
H3       H      0.7689     0.373      0.4184     0 
C10      C      0.74       0.3722     0.3992     0 
H4       H      0.7339     0.3593     0.4053     0 
O2       O      0.38676    0.91918    0.47683    0 
O2       O      0.36015    0.89315    0.47688    0 
C1       C      0.36802    0.9123     0.46973    0 
C2       C      0.35814    0.92207    0.45038    0 
C4       C      0.3378     0.9137     0.44237    0 
H2       H      0.3315     0.9008     0.4484     0 
C9       C      0.261      0.8806     0.4075     0 
H3       H      0.2689     0.873      0.4184     0 
C10      C      0.24       0.8722     0.3992     0 
H4       H      0.2339     0.8593     0.4053     0 
O2       O      0.38676    0.41918    0.97683    0 
O2       O      0.36015    0.39315    0.97688    0 
C1       C      0.36802    0.4123     0.96973    0 
C2       C      0.35814    0.42207    0.95038    0 
C4       C      0.3378     0.4137     0.94237    0 
H2       H      0.3315     0.4008     0.9484     0 
C9       C      0.261      0.3806     0.9075     0 
H3       H      0.2689     0.373      0.9184     0 
C10      C      0.24       0.3722     0.8992     0 
H4       H      0.2339     0.3593     0.9053     0 
O2       O      0.97683    0.91918    0.88676    0 
O2       O      0.97688    0.89315    0.86015    0 
C1       C      0.96973    0.9123     0.86802    0 
C2       C      0.95038    0.92207    0.85814    0 
C4       C      0.94237    0.9137     0.8378     0 
H2       H      0.9484     0.9008     0.8315     0 
C9       C      0.9075     0.8806     0.761      0 
H3       H      0.9184     0.873      0.7689     0 
C10      C      0.8992     0.8722     0.74       0 
H4       H      0.9053     0.8593     0.7339     0 
O2       O      0.97683    0.41918    0.38676    0 
O2       O      0.97688    0.39315    0.36015    0 
C1       C      0.96973    0.4123     0.36802    0 
C2       C      0.95038    0.42207    0.35814    0 
C4       C      0.94237    0.4137     0.3378     0 
H2       H      0.9484     0.4008     0.3315     0 
C9       C      0.9075     0.3806     0.261      0 
H3       H      0.9184     0.373      0.2689     0 
C10      C      0.8992     0.3722     0.24       0 
H4       H      0.9053     0.3593     0.2339     0 
O2       O      0.47683    0.91918    0.38676    0 
O2       O      0.47688    0.89315    0.36015    0 
C1       C      0.46973    0.9123     0.36802    0 
C2       C      0.45038    0.92207    0.35814    0 
C4       C      0.44237    0.9137     0.3378     0 
H2       H      0.4484     0.9008     0.3315     0 
C9       C      0.4075     0.8806     0.261      0 
H3       H      0.4184     0.873      0.2689     0 
C10      C      0.3992     0.8722     0.24       0 
H4       H      0.4053     0.8593     0.2339     0 
O2       O      0.47683    0.41918    0.88676    0 
O2       O      0.47688    0.39315    0.86015    0 
C1       C      0.46973    0.4123     0.86802    0 
C2       C      0.45038    0.42207    0.85814    0 
C4       C      0.44237    0.4137     0.8378     0 
H2       H      0.4484     0.4008     0.8315     0 
C9       C      0.4075     0.3806     0.761      0 
H3       H      0.4184     0.373      0.7689     0 
C10      C      0.3992     0.3722     0.74       0 
H4       H      0.4053     0.3593     0.7339     0 
O2       O      0.02317    0.08082    0.88676    0 
O2       O      0.02312    0.10685    0.86015    0 
C1       C      0.03027    0.0877     0.86802    0 
C2       C      0.04962    0.07793    0.85814    0 
C4       C      0.05763    0.0863     0.8378     0 
H2       H      0.0516     0.0992     0.8315     0 
C9       C      0.0925     0.1194     0.761      0 
H3       H      0.0816     0.127      0.7689     0 
C10      C      0.1008     0.1278     0.74       0 
H4       H      0.0947     0.1407     0.7339     0 
O2       O      0.02317    0.58082    0.38676    0 
O2       O      0.02312    0.60685    0.36015    0 
C1       C      0.03027    0.5877     0.36802    0 
C2       C      0.04962    0.57793    0.35814    0 
C4       C      0.05763    0.5863     0.3378     0 
H2       H      0.0516     0.5992     0.3315     0 
C9       C      0.0925     0.6194     0.261      0 
H3       H      0.0816     0.627      0.2689     0 
C10      C      0.1008     0.6278     0.24       0 
H4       H      0.0947     0.6407     0.2339     0 
O2       O      0.52317    0.08082    0.38676    0 
O2       O      0.52312    0.10685    0.36015    0 
C1       C      0.53027    0.0877     0.36802    0 
C2       C      0.54962    0.07793    0.35814    0 
C4       C      0.55763    0.0863     0.3378     0 
H2       H      0.5516     0.0992     0.3315     0 
C9       C      0.5925     0.1194     0.261      0 
H3       H      0.5816     0.127      0.2689     0 
C10      C      0.6008     0.1278     0.24       0 
H4       H      0.5947     0.1407     0.2339     0 
O2       O      0.52317    0.58082    0.88676    0 
O2       O      0.52312    0.60685    0.86015    0 
C1       C      0.53027    0.5877     0.86802    0 
C2       C      0.54962    0.57793    0.85814    0 
C4       C      0.55763    0.5863     0.8378     0 
H2       H      0.5516     0.5992     0.8315     0 
C9       C      0.5925     0.6194     0.761      0 
H3       H      0.5816     0.627      0.7689     0 
C10      C      0.6008     0.6278     0.74       0 
H4       H      0.5947     0.6407     0.7339     0 
O2       O      0.02317    0.91918    0.11324    0 
O2       O      0.02312    0.89315    0.13985    0 
C1       C      0.03027    0.9123     0.13198    0 
C2       C      0.04962    0.92207    0.14186    0 
C4       C      0.05763    0.9137     0.1622     0 
H2       H      0.0516     0.9008     0.1685     0 
C9       C      0.0925     0.8806     0.239      0 
H3       H      0.0816     0.873      0.2311     0 
C10      C      0.1008     0.8722     0.26       0 
H4       H      0.0947     0.8593     0.2661     0 
O2       O      0.02317    0.41918    0.61324    0 
O2       O      0.02312    0.39315    0.63985    0 
C1       C      0.03027    0.4123     0.63198    0 
C2       C      0.04962    0.42207    0.64186    0 
C4       C      0.05763    0.4137     0.6622     0 
H2       H      0.0516     0.4008     0.6685     0 
C9       C      0.0925     0.3806     0.739      0 
H3       H      0.0816     0.373      0.7311     0 
C10      C      0.1008     0.3722     0.76       0 
H4       H      0.0947     0.3593     0.7661     0 
O2       O      0.52317    0.91918    0.61324    0 
O2       O      0.52312    0.89315    0.63985    0 
C1       C      0.53027    0.9123     0.63198    0 
C2       C      0.54962    0.92207    0.64186    0 
C4       C      0.55763    0.9137     0.6622     0 
H2       H      0.5516     0.9008     0.6685     0 
C9       C      0.5925     0.8806     0.739      0 
H3       H      0.5816     0.873      0.7311     0 
C10      C      0.6008     0.8722     0.76       0 
H4       H      0.5947     0.8593     0.7661     0 
O2       O      0.52317    0.41918    0.11324    0 
O2       O      0.52312    0.39315    0.13985    0 
C1       C      0.53027    0.4123     0.13198    0 
C2       C      0.54962    0.42207    0.14186    0 
C4       C      0.55763    0.4137     0.1622     0 
H2       H      0.5516     0.4008     0.1685     0 
C9       C      0.5925     0.3806     0.239      0 
H3       H      0.5816     0.373      0.2311     0 
C10      C      0.6008     0.3722     0.26       0 
H4       H      0.5947     0.3593     0.2661     0 
O2       O      0.97683    0.08082    0.11324    0 
O2       O      0.97688    0.10685    0.13985    0 
C1       C      0.96973    0.0877     0.13198    0 
C2       C      0.95038    0.07793    0.14186    0 
C4       C      0.94237    0.0863     0.1622     0 
H2       H      0.9484     0.0992     0.1685     0 
C9       C      0.9075     0.1194     0.239      0 
H3       H      0.9184     0.127      0.2311     0 
C10      C      0.8992     0.1278     0.26       0 
H4       H      0.9053     0.1407     0.2661     0 
O2       O      0.97683    0.58082    0.61324    0 
O2       O      0.97688    0.60685    0.63985    0 
C1       C      0.96973    0.5877     0.63198    0 
C2       C      0.95038    0.57793    0.64186    0 
C4       C      0.94237    0.5863     0.6622     0 
H2       H      0.9484     0.5992     0.6685     0 
C9       C      0.9075     0.6194     0.739      0 
H3       H      0.9184     0.627      0.7311     0 
C10      C      0.8992     0.6278     0.76       0 
H4       H      0.9053     0.6407     0.7661     0 
O2       O      0.47683    0.08082    0.61324    0 
O2       O      0.47688    0.10685    0.63985    0 
C1       C      0.46973    0.0877     0.63198    0 
C2       C      0.45038    0.07793    0.64186    0 
C4       C      0.44237    0.0863     0.6622     0 
H2       H      0.4484     0.0992     0.6685     0 
C9       C      0.4075     0.1194     0.739      0 
H3       H      0.4184     0.127      0.7311     0 
C10      C      0.3992     0.1278     0.76       0 
H4       H      0.4053     0.1407     0.7661     0 
O2       O      0.47683    0.58082    0.11324    0 
O2       O      0.47688    0.60685    0.13985    0 
C1       C      0.46973    0.5877     0.13198    0 
C2       C      0.45038    0.57793    0.14186    0 
C4       C      0.44237    0.5863     0.1622     0 
H2       H      0.4484     0.5992     0.1685     0 
C9       C      0.4075     0.6194     0.239      0 
H3       H      0.4184     0.627      0.2311     0 
C10      C      0.3992     0.6278     0.26       0 
H4       H      0.4053     0.6407     0.2661     0 
O2       O      0.88676    0.97683    0.91918    0 
O2       O      0.86015    0.97688    0.89315    0 
C1       C      0.86802    0.96973    0.9123     0 
C2       C      0.85814    0.95038    0.92207    0 
C4       C      0.8378     0.94237    0.9137     0 
H2       H      0.8315     0.9484     0.9008     0 
C9       C      0.761      0.9075     0.8806     0 
H3       H      0.7689     0.9184     0.873      0 
C10      C      0.74       0.8992     0.8722     0 
H4       H      0.7339     0.9053     0.8593     0 
O2       O      0.88676    0.47683    0.41918    0 
O2       O      0.86015    0.47688    0.39315    0 
C1       C      0.86802    0.46973    0.4123     0 
C2       C      0.85814    0.45038    0.42207    0 
C4       C      0.8378     0.44237    0.4137     0 
H2       H      0.8315     0.4484     0.4008     0 
C9       C      0.761      0.4075     0.3806     0 
H3       H      0.7689     0.4184     0.373      0 
C10      C      0.74       0.3992     0.3722     0 
H4       H      0.7339     0.4053     0.3593     0 
O2       O      0.38676    0.97683    0.41918    0 
O2       O      0.36015    0.97688    0.39315    0 
C1       C      0.36802    0.96973    0.4123     0 
C2       C      0.35814    0.95038    0.42207    0 
C4       C      0.3378     0.94237    0.4137     0 
H2       H      0.3315     0.9484     0.4008     0 
C9       C      0.261      0.9075     0.3806     0 
H3       H      0.2689     0.9184     0.373      0 
C10      C      0.24       0.8992     0.3722     0 
H4       H      0.2339     0.9053     0.3593     0 
O2       O      0.38676    0.47683    0.91918    0 
O2       O      0.36015    0.47688    0.89315    0 
C1       C      0.36802    0.46973    0.9123     0 
C2       C      0.35814    0.45038    0.92207    0 
C4       C      0.3378     0.44237    0.9137     0 
H2       H      0.3315     0.4484     0.9008     0 
C9       C      0.261      0.4075     0.8806     0 
H3       H      0.2689     0.4184     0.873      0 
C10      C      0.24       0.3992     0.8722     0 
H4       H      0.2339     0.4053     0.8593     0 
O2       O      0.88676    0.02317    0.08082    0 
O2       O      0.86015    0.02312    0.10685    0 
C1       C      0.86802    0.03027    0.0877     0 
C2       C      0.85814    0.04962    0.07793    0 
C4       C      0.8378     0.05763    0.0863     0 
H2       H      0.8315     0.0516     0.0992     0 
C9       C      0.761      0.0925     0.1194     0 
H3       H      0.7689     0.0816     0.127      0 
C10      C      0.74       0.1008     0.1278     0 
H4       H      0.7339     0.0947     0.1407     0 
O2       O      0.88676    0.52317    0.58082    0 
O2       O      0.86015    0.52312    0.60685    0 
C1       C      0.86802    0.53027    0.5877     0 
C2       C      0.85814    0.54962    0.57793    0 
C4       C      0.8378     0.55763    0.5863     0 
H2       H      0.8315     0.5516     0.5992     0 
C9       C      0.761      0.5925     0.6194     0 
H3       H      0.7689     0.5816     0.627      0 
C10      C      0.74       0.6008     0.6278     0 
H4       H      0.7339     0.5947     0.6407     0 
O2       O      0.38676    0.02317    0.58082    0 
O2       O      0.36015    0.02312    0.60685    0 
C1       C      0.36802    0.03027    0.5877     0 
C2       C      0.35814    0.04962    0.57793    0 
C4       C      0.3378     0.05763    0.5863     0 
H2       H      0.3315     0.0516     0.5992     0 
C9       C      0.261      0.0925     0.6194     0 
H3       H      0.2689     0.0816     0.627      0 
C10      C      0.24       0.1008     0.6278     0 
H4       H      0.2339     0.0947     0.6407     0 
O2       O      0.38676    0.52317    0.08082    0 
O2       O      0.36015    0.52312    0.10685    0 
C1       C      0.36802    0.53027    0.0877     0 
C2       C      0.35814    0.54962    0.07793    0 
C4       C      0.3378     0.55763    0.0863     0 
H2       H      0.3315     0.5516     0.0992     0 
C9       C      0.261      0.5925     0.1194     0 
H3       H      0.2689     0.5816     0.127      0 
C10      C      0.24       0.6008     0.1278     0 
H4       H      0.2339     0.5947     0.1407     0 
O2       O      0.11324    0.02317    0.91918    0 
O2       O      0.13985    0.02312    0.89315    0 
C1       C      0.13198    0.03027    0.9123     0 
C2       C      0.14186    0.04962    0.92207    0 
C4       C      0.1622     0.05763    0.9137     0 
H2       H      0.1685     0.0516     0.9008     0 
C9       C      0.239      0.0925     0.8806     0 
H3       H      0.2311     0.0816     0.873      0 
C10      C      0.26       0.1008     0.8722     0 
H4       H      0.2661     0.0947     0.8593     0 
O2       O      0.11324    0.52317    0.41918    0 
O2       O      0.13985    0.52312    0.39315    0 
C1       C      0.13198    0.53027    0.4123     0 
C2       C      0.14186    0.54962    0.42207    0 
C4       C      0.1622     0.55763    0.4137     0 
H2       H      0.1685     0.5516     0.4008     0 
C9       C      0.239      0.5925     0.3806     0 
H3       H      0.2311     0.5816     0.373      0 
C10      C      0.26       0.6008     0.3722     0 
H4       H      0.2661     0.5947     0.3593     0 
O2       O      0.61324    0.02317    0.41918    0 
O2       O      0.63985    0.02312    0.39315    0 
C1       C      0.63198    0.03027    0.4123     0 
C2       C      0.64186    0.04962    0.42207    0 
C4       C      0.6622     0.05763    0.4137     0 
H2       H      0.6685     0.0516     0.4008     0 
C9       C      0.739      0.0925     0.3806     0 
H3       H      0.7311     0.0816     0.373      0 
C10      C      0.76       0.1008     0.3722     0 
H4       H      0.7661     0.0947     0.3593     0 
O2       O      0.61324    0.52317    0.91918    0 
O2       O      0.63985    0.52312    0.89315    0 
C1       C      0.63198    0.53027    0.9123     0 
C2       C      0.64186    0.54962    0.92207    0 
C4       C      0.6622     0.55763    0.9137     0 
H2       H      0.6685     0.5516     0.9008     0 
C9       C      0.739      0.5925     0.8806     0 
H3       H      0.7311     0.5816     0.873      0 
C10      C      0.76       0.6008     0.8722     0 
H4       H      0.7661     0.5947     0.8593     0 
O2       O      0.11324    0.97683    0.08082    0 
O2       O      0.13985    0.97688    0.10685    0 
C1       C      0.13198    0.96973    0.0877     0 
C2       C      0.14186    0.95038    0.07793    0 
C4       C      0.1622     0.94237    0.0863     0 
H2       H      0.1685     0.9484     0.0992     0 
C9       C      0.239      0.9075     0.1194     0 
H3       H      0.2311     0.9184     0.127      0 
C10      C      0.26       0.8992     0.1278     0 
H4       H      0.2661     0.9053     0.1407     0 
O2       O      0.11324    0.47683    0.58082    0 
O2       O      0.13985    0.47688    0.60685    0 
C1       C      0.13198    0.46973    0.5877     0 
C2       C      0.14186    0.45038    0.57793    0 
C4       C      0.1622     0.44237    0.5863     0 
H2       H      0.1685     0.4484     0.5992     0 
C9       C      0.239      0.4075     0.6194     0 
H3       H      0.2311     0.4184     0.627      0 
C10      C      0.26       0.3992     0.6278     0 
H4       H      0.2661     0.4053     0.6407     0 
O2       O      0.61324    0.97683    0.58082    0 
O2       O      0.63985    0.97688    0.60685    0 
C1       C      0.63198    0.96973    0.5877     0 
C2       C      0.64186    0.95038    0.57793    0 
C4       C      0.6622     0.94237    0.5863     0 
H2       H      0.6685     0.9484     0.5992     0 
C9       C      0.739      0.9075     0.6194     0 
H3       H      0.7311     0.9184     0.627      0 
C10      C      0.76       0.8992     0.6278     0 
H4       H      0.7661     0.9053     0.6407     0 
O2       O      0.61324    0.47683    0.08082    0 
O2       O      0.63985    0.47688    0.10685    0 
C1       C      0.63198    0.46973    0.0877     0 
C2       C      0.64186    0.45038    0.07793    0 
C4       C      0.6622     0.44237    0.0863     0 
H2       H      0.6685     0.4484     0.0992     0 
C9       C      0.739      0.4075     0.1194     0 
H3       H      0.7311     0.4184     0.127      0 
C10      C      0.76       0.3992     0.1278     0 
H4       H      0.7661     0.4053     0.1407     0 
O2       O      0.91918    0.88676    0.97683    0 
O2       O      0.89315    0.86015    0.97688    0 
C1       C      0.9123     0.86802    0.96973    0 
C2       C      0.92207    0.85814    0.95038    0 
C4       C      0.9137     0.8378     0.94237    0 
H2       H      0.9008     0.8315     0.9484     0 
C9       C      0.8806     0.761      0.9075     0 
H3       H      0.873      0.7689     0.9184     0 
C10      C      0.8722     0.74       0.8992     0 
H4       H      0.8593     0.7339     0.9053     0 
O2       O      0.91918    0.38676    0.47683    0 
O2       O      0.89315    0.36015    0.47688    0 
C1       C      0.9123     0.36802    0.46973    0 
C2       C      0.92207    0.35814    0.45038    0 
C4       C      0.9137     0.3378     0.44237    0 
H2       H      0.9008     0.3315     0.4484     0 
C9       C      0.8806     0.261      0.4075     0 
H3       H      0.873      0.2689     0.4184     0 
C10      C      0.8722     0.24       0.3992     0 
H4       H      0.8593     0.2339     0.4053     0 
O2       O      0.41918    0.88676    0.47683    0 
O2       O      0.39315    0.86015    0.47688    0 
C1       C      0.4123     0.86802    0.46973    0 
C2       C      0.42207    0.85814    0.45038    0 
C4       C      0.4137     0.8378     0.44237    0 
H2       H      0.4008     0.8315     0.4484     0 
C9       C      0.3806     0.761      0.4075     0 
H3       H      0.373      0.7689     0.4184     0 
C10      C      0.3722     0.74       0.3992     0 
H4       H      0.3593     0.7339     0.4053     0 
O2       O      0.41918    0.38676    0.97683    0 
O2       O      0.39315    0.36015    0.97688    0 
C1       C      0.4123     0.36802    0.96973    0 
C2       C      0.42207    0.35814    0.95038    0 
C4       C      0.4137     0.3378     0.94237    0 
H2       H      0.4008     0.3315     0.9484     0 
C9       C      0.3806     0.261      0.9075     0 
H3       H      0.373      0.2689     0.9184     0 
C10      C      0.3722     0.24       0.8992     0 
H4       H      0.3593     0.2339     0.9053     0 
O2       O      0.08082    0.88676    0.02317    0 
O2       O      0.10685    0.86015    0.02312    0 
C1       C      0.0877     0.86802    0.03027    0 
C2       C      0.07793    0.85814    0.04962    0 
C4       C      0.0863     0.8378     0.05763    0 
H2       H      0.0992     0.8315     0.0516     0 
C9       C      0.1194     0.761      0.0925     0 
H3       H      0.127      0.7689     0.0816     0 
C10      C      0.1278     0.74       0.1008     0 
H4       H      0.1407     0.7339     0.0947     0 
O2       O      0.08082    0.38676    0.52317    0 
O2       O      0.10685    0.36015    0.52312    0 
C1       C      0.0877     0.36802    0.53027    0 
C2       C      0.07793    0.35814    0.54962    0 
C4       C      0.0863     0.3378     0.55763    0 
H2       H      0.0992     0.3315     0.5516     0 
C9       C      0.1194     0.261      0.5925     0 
H3       H      0.127      0.2689     0.5816     0 
C10      C      0.1278     0.24       0.6008     0 
H4       H      0.1407     0.2339     0.5947     0 
O2       O      0.58082    0.88676    0.52317    0 
O2       O      0.60685    0.86015    0.52312    0 
C1       C      0.5877     0.86802    0.53027    0 
C2       C      0.57793    0.85814    0.54962    0 
C4       C      0.5863     0.8378     0.55763    0 
H2       H      0.5992     0.8315     0.5516     0 
C9       C      0.6194     0.761      0.5925     0 
H3       H      0.627      0.7689     0.5816     0 
C10      C      0.6278     0.74       0.6008     0 
H4       H      0.6407     0.7339     0.5947     0 
O2       O      0.58082    0.38676    0.02317    0 
O2       O      0.60685    0.36015    0.02312    0 
C1       C      0.5877     0.36802    0.03027    0 
C2       C      0.57793    0.35814    0.04962    0 
C4       C      0.5863     0.3378     0.05763    0 
H2       H      0.5992     0.3315     0.0516     0 
C9       C      0.6194     0.261      0.0925     0 
H3       H      0.627      0.2689     0.0816     0 
C10      C      0.6278     0.24       0.1008     0 
H4       H      0.6407     0.2339     0.0947     0 
O2       O      0.91918    0.11324    0.02317    0 
O2       O      0.89315    0.13985    0.02312    0 
C1       C      0.9123     0.13198    0.03027    0 
C2       C      0.92207    0.14186    0.04962    0 
C4       C      0.9137     0.1622     0.05763    0 
H2       H      0.9008     0.1685     0.0516     0 
C9       C      0.8806     0.239      0.0925     0 
H3       H      0.873      0.2311     0.0816     0 
C10      C      0.8722     0.26       0.1008     0 
H4       H      0.8593     0.2661     0.0947     0 
O2       O      0.91918    0.61324    0.52317    0 
O2       O      0.89315    0.63985    0.52312    0 
C1       C      0.9123     0.63198    0.53027    0 
C2       C      0.92207    0.64186    0.54962    0 
C4       C      0.9137     0.6622     0.55763    0 
H2       H      0.9008     0.6685     0.5516     0 
C9       C      0.8806     0.739      0.5925     0 
H3       H      0.873      0.7311     0.5816     0 
C10      C      0.8722     0.76       0.6008     0 
H4       H      0.8593     0.7661     0.5947     0 
O2       O      0.41918    0.11324    0.52317    0 
O2       O      0.39315    0.13985    0.52312    0 
C1       C      0.4123     0.13198    0.53027    0 
C2       C      0.42207    0.14186    0.54962    0 
C4       C      0.4137     0.1622     0.55763    0 
H2       H      0.4008     0.1685     0.5516     0 
C9       C      0.3806     0.239      0.5925     0 
H3       H      0.373      0.2311     0.5816     0 
C10      C      0.3722     0.26       0.6008     0 
H4       H      0.3593     0.2661     0.5947     0 
O2       O      0.41918    0.61324    0.02317    0 
O2       O      0.39315    0.63985    0.02312    0 
C1       C      0.4123     0.63198    0.03027    0 
C2       C      0.42207    0.64186    0.04962    0 
C4       C      0.4137     0.6622     0.05763    0 
H2       H      0.4008     0.6685     0.0516     0 
C9       C      0.3806     0.739      0.0925     0 
H3       H      0.373      0.7311     0.0816     0 
C10      C      0.3722     0.76       0.1008     0 
H4       H      0.3593     0.7661     0.0947     0 
O2       O      0.08082    0.11324    0.97683    0 
O2       O      0.10685    0.13985    0.97688    0 
C1       C      0.0877     0.13198    0.96973    0 
C2       C      0.07793    0.14186    0.95038    0 
C4       C      0.0863     0.1622     0.94237    0 
H2       H      0.0992     0.1685     0.9484     0 
C9       C      0.1194     0.239      0.9075     0 
H3       H      0.127      0.2311     0.9184     0 
C10      C      0.1278     0.26       0.8992     0 
H4       H      0.1407     0.2661     0.9053     0 
O2       O      0.08082    0.61324    0.47683    0 
O2       O      0.10685    0.63985    0.47688    0 
C1       C      0.0877     0.63198    0.46973    0 
C2       C      0.07793    0.64186    0.45038    0 
C4       C      0.0863     0.6622     0.44237    0 
H2       H      0.0992     0.6685     0.4484     0 
C9       C      0.1194     0.739      0.4075     0 
H3       H      0.127      0.7311     0.4184     0 
C10      C      0.1278     0.76       0.3992     0 
H4       H      0.1407     0.7661     0.4053     0 
O2       O      0.58082    0.11324    0.47683    0 
O2       O      0.60685    0.13985    0.47688    0 
C1       C      0.5877     0.13198    0.46973    0 
C2       C      0.57793    0.14186    0.45038    0 
C4       C      0.5863     0.1622     0.44237    0 
H2       H      0.5992     0.1685     0.4484     0 
C9       C      0.6194     0.239      0.4075     0 
H3       H      0.627      0.2311     0.4184     0 
C10      C      0.6278     0.26       0.3992     0 
H4       H      0.6407     0.2661     0.4053     0 
O2       O      0.58082    0.61324    0.97683    0 
O2       O      0.60685    0.63985    0.97688    0 
C1       C      0.5877     0.63198    0.96973    0 
C2       C      0.57793    0.64186    0.95038    0 
C4       C      0.5863     0.6622     0.94237    0 
H2       H      0.5992     0.6685     0.9484     0 
C9       C      0.6194     0.739      0.9075     0 
H3       H      0.627      0.7311     0.9184     0 
C10      C      0.6278     0.76       0.8992     0 
H4       H      0.6407     0.7661     0.9053     0 
O2       O      0.91918    0.97683    0.11324    0 
O2       O      0.89315    0.97688    0.13985    0 
C1       C      0.9123     0.96973    0.13198    0 
C2       C      0.92207    0.95038    0.14186    0 
C4       C      0.9137     0.94237    0.1622     0 
H2       H      0.9008     0.9484     0.1685     0 
C9       C      0.8806     0.9075     0.239      0 
H3       H      0.873      0.9184     0.2311     0 
C10      C      0.8722     0.8992     0.26       0 
H4       H      0.8593     0.9053     0.2661     0 
O2       O      0.91918    0.47683    0.61324    0 
O2       O      0.89315    0.47688    0.63985    0 
C1       C      0.9123     0.46973    0.63198    0 
C2       C      0.92207    0.45038    0.64186    0 
C4       C      0.9137     0.44237    0.6622     0 
H2       H      0.9008     0.4484     0.6685     0 
C9       C      0.8806     0.4075     0.739      0 
H3       H      0.873      0.4184     0.7311     0 
C10      C      0.8722     0.3992     0.76       0 
H4       H      0.8593     0.4053     0.7661     0 
O2       O      0.41918    0.97683    0.61324    0 
O2       O      0.39315    0.97688    0.63985    0 
C1       C      0.4123     0.96973    0.63198    0 
C2       C      0.42207    0.95038    0.64186    0 
C4       C      0.4137     0.94237    0.6622     0 
H2       H      0.4008     0.9484     0.6685     0 
C9       C      0.3806     0.9075     0.739      0 
H3       H      0.373      0.9184     0.7311     0 
C10      C      0.3722     0.8992     0.76       0 
H4       H      0.3593     0.9053     0.7661     0 
O2       O      0.41918    0.47683    0.11324    0 
O2       O      0.39315    0.47688    0.13985    0 
C1       C      0.4123     0.46973    0.13198    0 
C2       C      0.42207    0.45038    0.14186    0 
C4       C      0.4137     0.44237    0.1622     0 
H2       H      0.4008     0.4484     0.1685     0 
C9       C      0.3806     0.4075     0.239      0 
H3       H      0.373      0.4184     0.2311     0 
C10      C      0.3722     0.3992     0.26       0 
H4       H      0.3593     0.4053     0.2661     0 
O2       O      0.08082    0.02317    0.11324    0 
O2       O      0.10685    0.02312    0.13985    0 
C1       C      0.0877     0.03027    0.13198    0 
C2       C      0.07793    0.04962    0.14186    0 
C4       C      0.0863     0.05763    0.1622     0 
H2       H      0.0992     0.0516     0.1685     0 
C9       C      0.1194     0.0925     0.239      0 
H3       H      0.127      0.0816     0.2311     0 
C10      C      0.1278     0.1008     0.26       0 
H4       H      0.1407     0.0947     0.2661     0 
O2       O      0.08082    0.52317    0.61324    0 
O2       O      0.10685    0.52312    0.63985    0 
C1       C      0.0877     0.53027    0.63198    0 
C2       C      0.07793    0.54962    0.64186    0 
C4       C      0.0863     0.55763    0.6622     0 
H2       H      0.0992     0.5516     0.6685     0 
C9       C      0.1194     0.5925     0.739      0 
H3       H      0.127      0.5816     0.7311     0 
C10      C      0.1278     0.6008     0.76       0 
H4       H      0.1407     0.5947     0.7661     0 
O2       O      0.58082    0.02317    0.61324    0 
O2       O      0.60685    0.02312    0.63985    0 
C1       C      0.5877     0.03027    0.63198    0 
C2       C      0.57793    0.04962    0.64186    0 
C4       C      0.5863     0.05763    0.6622     0 
H2       H      0.5992     0.0516     0.6685     0 
C9       C      0.6194     0.0925     0.739      0 
H3       H      0.627      0.0816     0.7311     0 
C10      C      0.6278     0.1008     0.76       0 
H4       H      0.6407     0.0947     0.7661     0 
O2       O      0.58082    0.52317    0.11324    0 
O2       O      0.60685    0.52312    0.13985    0 
C1       C      0.5877     0.53027    0.13198    0 
C2       C      0.57793    0.54962    0.14186    0 
C4       C      0.5863     0.55763    0.1622     0 
H2       H      0.5992     0.5516     0.1685     0 
C9       C      0.6194     0.5925     0.239      0 
H3       H      0.627      0.5816     0.2311     0 
C10      C      0.6278     0.6008     0.26       0 
H4       H      0.6407     0.5947     0.2661     0 
O2       O      0.91918    0.02317    0.88676    0 
O2       O      0.89315    0.02312    0.86015    0 
C1       C      0.9123     0.03027    0.86802    0 
C2       C      0.92207    0.04962    0.85814    0 
C4       C      0.9137     0.05763    0.8378     0 
H2       H      0.9008     0.0516     0.8315     0 
C9       C      0.8806     0.0925     0.761      0 
H3       H      0.873      0.0816     0.7689     0 
C10      C      0.8722     0.1008     0.74       0 
H4       H      0.8593     0.0947     0.7339     0 
O2       O      0.91918    0.52317    0.38676    0 
O2       O      0.89315    0.52312    0.36015    0 
C1       C      0.9123     0.53027    0.36802    0 
C2       C      0.92207    0.54962    0.35814    0 
C4       C      0.9137     0.55763    0.3378     0 
H2       H      0.9008     0.5516     0.3315     0 
C9       C      0.8806     0.5925     0.261      0 
H3       H      0.873      0.5816     0.2689     0 
C10      C      0.8722     0.6008     0.24       0 
H4       H      0.8593     0.5947     0.2339     0 
O2       O      0.41918    0.02317    0.38676    0 
O2       O      0.39315    0.02312    0.36015    0 
C1       C      0.4123     0.03027    0.36802    0 
C2       C      0.42207    0.04962    0.35814    0 
C4       C      0.4137     0.05763    0.3378     0 
H2       H      0.4008     0.0516     0.3315     0 
C9       C      0.3806     0.0925     0.261      0 
H3       H      0.373      0.0816     0.2689     0 
C10      C      0.3722     0.1008     0.24       0 
H4       H      0.3593     0.0947     0.2339     0 
O2       O      0.41918    0.52317    0.88676    0 
O2       O      0.39315    0.52312    0.86015    0 
C1       C      0.4123     0.53027    0.86802    0 
C2       C      0.42207    0.54962    0.85814    0 
C4       C      0.4137     0.55763    0.8378     0 
H2       H      0.4008     0.5516     0.8315     0 
C9       C      0.3806     0.5925     0.761      0 
H3       H      0.373      0.5816     0.7689     0 
C10      C      0.3722     0.6008     0.74       0 
H4       H      0.3593     0.5947     0.7339     0 
O2       O      0.08082    0.97683    0.88676    0 
O2       O      0.10685    0.97688    0.86015    0 
C1       C      0.0877     0.96973    0.86802    0 
C2       C      0.07793    0.95038    0.85814    0 
C4       C      0.0863     0.94237    0.8378     0 
H2       H      0.0992     0.9484     0.8315     0 
C9       C      0.1194     0.9075     0.761      0 
H3       H      0.127      0.9184     0.7689     0 
C10      C      0.1278     0.8992     0.74       0 
H4       H      0.1407     0.9053     0.7339     0 
O2       O      0.08082    0.47683    0.38676    0 
O2       O      0.10685    0.47688    0.36015    0 
C1       C      0.0877     0.46973    0.36802    0 
C2       C      0.07793    0.45038    0.35814    0 
C4       C      0.0863     0.44237    0.3378     0 
H2       H      0.0992     0.4484     0.3315     0 
C9       C      0.1194     0.4075     0.261      0 
H3       H      0.127      0.4184     0.2689     0 
C10      C      0.1278     0.3992     0.24       0 
H4       H      0.1407     0.4053     0.2339     0 
O2       O      0.58082    0.97683    0.38676    0 
O2       O      0.60685    0.97688    0.36015    0 
C1       C      0.5877     0.96973    0.36802    0 
C2       C      0.57793    0.95038    0.35814    0 
C4       C      0.5863     0.94237    0.3378     0 
H2       H      0.5992     0.9484     0.3315     0 
C9       C      0.6194     0.9075     0.261      0 
H3       H      0.627      0.9184     0.2689     0 
C10      C      0.6278     0.8992     0.24       0 
H4       H      0.6407     0.9053     0.2339     0 
O2       O      0.58082    0.47683    0.88676    0 
O2       O      0.60685    0.47688    0.86015    0 
C1       C      0.5877     0.46973    0.86802    0 
C2       C      0.57793    0.45038    0.85814    0 
C4       C      0.5863     0.44237    0.8378     0 
H2       H      0.5992     0.4484     0.8315     0 
C9       C      0.6194     0.4075     0.761      0 
H3       H      0.627      0.4184     0.7689     0 
C10      C      0.6278     0.3992     0.74       0 
H4       H      0.6407     0.4053     0.7339     0 
O2       O      0.97683    0.88676    0.08082    0 
O2       O      0.97688    0.86015    0.10685    0 
C1       C      0.96973    0.86802    0.0877     0 
C2       C      0.95038    0.85814    0.07793    0 
C4       C      0.94237    0.8378     0.0863     0 
H2       H      0.9484     0.8315     0.0992     0 
C9       C      0.9075     0.761      0.1194     0 
H3       H      0.9184     0.7689     0.127      0 
C10      C      0.8992     0.74       0.1278     0 
H4       H      0.9053     0.7339     0.1407     0 
O2       O      0.97683    0.38676    0.58082    0 
O2       O      0.97688    0.36015    0.60685    0 
C1       C      0.96973    0.36802    0.5877     0 
C2       C      0.95038    0.35814    0.57793    0 
C4       C      0.94237    0.3378     0.5863     0 
H2       H      0.9484     0.3315     0.5992     0 
C9       C      0.9075     0.261      0.6194     0 
H3       H      0.9184     0.2689     0.627      0 
C10      C      0.8992     0.24       0.6278     0 
H4       H      0.9053     0.2339     0.6407     0 
O2       O      0.47683    0.88676    0.58082    0 
O2       O      0.47688    0.86015    0.60685    0 
C1       C      0.46973    0.86802    0.5877     0 
C2       C      0.45038    0.85814    0.57793    0 
C4       C      0.44237    0.8378     0.5863     0 
H2       H      0.4484     0.8315     0.5992     0 
C9       C      0.4075     0.761      0.6194     0 
H3       H      0.4184     0.7689     0.627      0 
C10      C      0.3992     0.74       0.6278     0 
H4       H      0.4053     0.7339     0.6407     0 
O2       O      0.47683    0.38676    0.08082    0 
O2       O      0.47688    0.36015    0.10685    0 
C1       C      0.46973    0.36802    0.0877     0 
C2       C      0.45038    0.35814    0.07793    0 
C4       C      0.44237    0.3378     0.0863     0 
H2       H      0.4484     0.3315     0.0992     0 
C9       C      0.4075     0.261      0.1194     0 
H3       H      0.4184     0.2689     0.127      0 
C10      C      0.3992     0.24       0.1278     0 
H4       H      0.4053     0.2339     0.1407     0 
O2       O      0.02317    0.88676    0.91918    0 
O2       O      0.02312    0.86015    0.89315    0 
C1       C      0.03027    0.86802    0.9123     0 
C2       C      0.04962    0.85814    0.92207    0 
C4       C      0.05763    0.8378     0.9137     0 
H2       H      0.0516     0.8315     0.9008     0 
C9       C      0.0925     0.761      0.8806     0 
H3       H      0.0816     0.7689     0.873      0 
C10      C      0.1008     0.74       0.8722     0 
H4       H      0.0947     0.7339     0.8593     0 
O2       O      0.02317    0.38676    0.41918    0 
O2       O      0.02312    0.36015    0.39315    0 
C1       C      0.03027    0.36802    0.4123     0 
C2       C      0.04962    0.35814    0.42207    0 
C4       C      0.05763    0.3378     0.4137     0 
H2       H      0.0516     0.3315     0.4008     0 
C9       C      0.0925     0.261      0.3806     0 
H3       H      0.0816     0.2689     0.373      0 
C10      C      0.1008     0.24       0.3722     0 
H4       H      0.0947     0.2339     0.3593     0 
O2       O      0.52317    0.88676    0.41918    0 
O2       O      0.52312    0.86015    0.39315    0 
C1       C      0.53027    0.86802    0.4123     0 
C2       C      0.54962    0.85814    0.42207    0 
C4       C      0.55763    0.8378     0.4137     0 
H2       H      0.5516     0.8315     0.4008     0 
C9       C      0.5925     0.761      0.3806     0 
H3       H      0.5816     0.7689     0.373      0 
C10      C      0.6008     0.74       0.3722     0 
H4       H      0.5947     0.7339     0.3593     0 
O2       O      0.52317    0.38676    0.91918    0 
O2       O      0.52312    0.36015    0.89315    0 
C1       C      0.53027    0.36802    0.9123     0 
C2       C      0.54962    0.35814    0.92207    0 
C4       C      0.55763    0.3378     0.9137     0 
H2       H      0.5516     0.3315     0.9008     0 
C9       C      0.5925     0.261      0.8806     0 
H3       H      0.5816     0.2689     0.873      0 
C10      C      0.6008     0.24       0.8722     0 
H4       H      0.5947     0.2339     0.8593     0 
O2       O      0.02317    0.11324    0.08082    0 
O2       O      0.02312    0.13985    0.10685    0 
C1       C      0.03027    0.13198    0.0877     0 
C2       C      0.04962    0.14186    0.07793    0 
C4       C      0.05763    0.1622     0.0863     0 
H2       H      0.0516     0.1685     0.0992     0 
C9       C      0.0925     0.239      0.1194     0 
H3       H      0.0816     0.2311     0.127      0 
C10      C      0.1008     0.26       0.1278     0 
H4       H      0.0947     0.2661     0.1407     0 
O2       O      0.02317    0.61324    0.58082    0 
O2       O      0.02312    0.63985    0.60685    0 
C1       C      0.03027    0.63198    0.5877     0 
C2       C      0.04962    0.64186    0.57793    0 
C4       C      0.05763    0.6622     0.5863     0 
H2       H      0.0516     0.6685     0.5992     0 
C9       C      0.0925     0.739      0.6194     0 
H3       H      0.0816     0.7311     0.627      0 
C10      C      0.1008     0.76       0.6278     0 
H4       H      0.0947     0.7661     0.6407     0 
O2       O      0.52317    0.11324    0.58082    0 
O2       O      0.52312    0.13985    0.60685    0 
C1       C      0.53027    0.13198    0.5877     0 
C2       C      0.54962    0.14186    0.57793    0 
C4       C      0.55763    0.1622     0.5863     0 
H2       H      0.5516     0.1685     0.5992     0 
C9       C      0.5925     0.239      0.6194     0 
H3       H      0.5816     0.2311     0.627      0 
C10      C      0.6008     0.26       0.6278     0 
H4       H      0.5947     0.2661     0.6407     0 
O2       O      0.52317    0.61324    0.08082    0 
O2       O      0.52312    0.63985    0.10685    0 
C1       C      0.53027    0.63198    0.0877     0 
C2       C      0.54962    0.64186    0.07793    0 
C4       C      0.55763    0.6622     0.0863     0 
H2       H      0.5516     0.6685     0.0992     0 
C9       C      0.5925     0.739      0.1194     0 
H3       H      0.5816     0.7311     0.127      0 
C10      C      0.6008     0.76       0.1278     0 
H4       H      0.5947     0.7661     0.1407     0 
O2       O      0.97683    0.11324    0.91918    0 
O2       O      0.97688    0.13985    0.89315    0 
C1       C      0.96973    0.13198    0.9123     0 
C2       C      0.95038    0.14186    0.92207    0 
C4       C      0.94237    0.1622     0.9137     0 
H2       H      0.9484     0.1685     0.9008     0 
C9       C      0.9075     0.239      0.8806     0 
H3       H      0.9184     0.2311     0.873      0 
C10      C      0.8992     0.26       0.8722     0 
H4       H      0.9053     0.2661     0.8593     0 
O2       O      0.97683    0.61324    0.41918    0 
O2       O      0.97688    0.63985    0.39315    0 
C1       C      0.96973    0.63198    0.4123     0 
C2       C      0.95038    0.64186    0.42207    0 
C4       C      0.94237    0.6622     0.4137     0 
H2       H      0.9484     0.6685     0.4008     0 
C9       C      0.9075     0.739      0.3806     0 
H3       H      0.9184     0.7311     0.373      0 
C10      C      0.8992     0.76       0.3722     0 
H4       H      0.9053     0.7661     0.3593     0 
O2       O      0.47683    0.11324    0.41918    0 
O2       O      0.47688    0.13985    0.39315    0 
C1       C      0.46973    0.13198    0.4123     0 
C2       C      0.45038    0.14186    0.42207    0 
C4       C      0.44237    0.1622     0.4137     0 
H2       H      0.4484     0.1685     0.4008     0 
C9       C      0.4075     0.239      0.3806     0 
H3       H      0.4184     0.2311     0.373      0 
C10      C      0.3992     0.26       0.3722     0 
H4       H      0.4053     0.2661     0.3593     0 
O2       O      0.47683    0.61324    0.91918    0 
O2       O      0.47688    0.63985    0.89315    0 
C1       C      0.46973    0.63198    0.9123     0 
C2       C      0.45038    0.64186    0.92207    0 
C4       C      0.44237    0.6622     0.9137     0 
H2       H      0.4484     0.6685     0.9008     0 
C9       C      0.4075     0.739      0.8806     0 
H3       H      0.4184     0.7311     0.873      0 
C10      C      0.3992     0.76       0.8722     0 
H4       H      0.4053     0.7661     0.8593     0 
O2       O      0.88676    0.91918    0.02317    0 
O2       O      0.86015    0.89315    0.02312    0 
C1       C      0.86802    0.9123     0.03027    0 
C2       C      0.85814    0.92207    0.04962    0 
C4       C      0.8378     0.9137     0.05763    0 
H2       H      0.8315     0.9008     0.0516     0 
C9       C      0.761      0.8806     0.0925     0 
H3       H      0.7689     0.873      0.0816     0 
C10      C      0.74       0.8722     0.1008     0 
H4       H      0.7339     0.8593     0.0947     0 
O2       O      0.88676    0.41918    0.52317    0 
O2       O      0.86015    0.39315    0.52312    0 
C1       C      0.86802    0.4123     0.53027    0 
C2       C      0.85814    0.42207    0.54962    0 
C4       C      0.8378     0.4137     0.55763    0 
H2       H      0.8315     0.4008     0.5516     0 
C9       C      0.761      0.3806     0.5925     0 
H3       H      0.7689     0.373      0.5816     0 
C10      C      0.74       0.3722     0.6008     0 
H4       H      0.7339     0.3593     0.5947     0 
O2       O      0.38676    0.91918    0.52317    0 
O2       O      0.36015    0.89315    0.52312    0 
C1       C      0.36802    0.9123     0.53027    0 
C2       C      0.35814    0.92207    0.54962    0 
C4       C      0.3378     0.9137     0.55763    0 
H2       H      0.3315     0.9008     0.5516     0 
C9       C      0.261      0.8806     0.5925     0 
H3       H      0.2689     0.873      0.5816     0 
C10      C      0.24       0.8722     0.6008     0 
H4       H      0.2339     0.8593     0.5947     0 
O2       O      0.38676    0.41918    0.02317    0 
O2       O      0.36015    0.39315    0.02312    0 
C1       C      0.36802    0.4123     0.03027    0 
C2       C      0.35814    0.42207    0.04962    0 
C4       C      0.3378     0.4137     0.05763    0 
H2       H      0.3315     0.4008     0.0516     0 
C9       C      0.261      0.3806     0.0925     0 
H3       H      0.2689     0.373      0.0816     0 
C10      C      0.24       0.3722     0.1008     0 
H4       H      0.2339     0.3593     0.0947     0 
O2       O      0.88676    0.08082    0.97683    0 
O2       O      0.86015    0.10685    0.97688    0 
C1       C      0.86802    0.0877     0.96973    0 
C2       C      0.85814    0.07793    0.95038    0 
C4       C      0.8378     0.0863     0.94237    0 
H2       H      0.8315     0.0992     0.9484     0 
C9       C      0.761      0.1194     0.9075     0 
H3       H      0.7689     0.127      0.9184     0 
C10      C      0.74       0.1278     0.8992     0 
H4       H      0.7339     0.1407     0.9053     0 
O2       O      0.88676    0.58082    0.47683    0 
O2       O      0.86015    0.60685    0.47688    0 
C1       C      0.86802    0.5877     0.46973    0 
C2       C      0.85814    0.57793    0.45038    0 
C4       C      0.8378     0.5863     0.44237    0 
H2       H      0.8315     0.5992     0.4484     0 
C9       C      0.761      0.6194     0.4075     0 
H3       H      0.7689     0.627      0.4184     0 
C10      C      0.74       0.6278     0.3992     0 
H4       H      0.7339     0.6407     0.4053     0 
O2       O      0.38676    0.08082    0.47683    0 
O2       O      0.36015    0.10685    0.47688    0 
C1       C      0.36802    0.0877     0.46973    0 
C2       C      0.35814    0.07793    0.45038    0 
C4       C      0.3378     0.0863     0.44237    0 
H2       H      0.3315     0.0992     0.4484     0 
C9       C      0.261      0.1194     0.4075     0 
H3       H      0.2689     0.127      0.4184     0 
C10      C      0.24       0.1278     0.3992     0 
H4       H      0.2339     0.1407     0.4053     0 
O2       O      0.38676    0.58082    0.97683    0 
O2       O      0.36015    0.60685    0.97688    0 
C1       C      0.36802    0.5877     0.96973    0 
C2       C      0.35814    0.57793    0.95038    0 
C4       C      0.3378     0.5863     0.94237    0 
H2       H      0.3315     0.5992     0.9484     0 
C9       C      0.261      0.6194     0.9075     0 
H3       H      0.2689     0.627      0.9184     0 
C10      C      0.24       0.6278     0.8992     0 
H4       H      0.2339     0.6407     0.9053     0 
O2       O      0.11324    0.91918    0.97683    0 
O2       O      0.13985    0.89315    0.97688    0 
C1       C      0.13198    0.9123     0.96973    0 
C2       C      0.14186    0.92207    0.95038    0 
C4       C      0.1622     0.9137     0.94237    0 
H2       H      0.1685     0.9008     0.9484     0 
C9       C      0.239      0.8806     0.9075     0 
H3       H      0.2311     0.873      0.9184     0 
C10      C      0.26       0.8722     0.8992     0 
H4       H      0.2661     0.8593     0.9053     0 
O2       O      0.11324    0.41918    0.47683    0 
O2       O      0.13985    0.39315    0.47688    0 
C1       C      0.13198    0.4123     0.46973    0 
C2       C      0.14186    0.42207    0.45038    0 
C4       C      0.1622     0.4137     0.44237    0 
H2       H      0.1685     0.4008     0.4484     0 
C9       C      0.239      0.3806     0.4075     0 
H3       H      0.2311     0.373      0.4184     0 
C10      C      0.26       0.3722     0.3992     0 
H4       H      0.2661     0.3593     0.4053     0 
O2       O      0.61324    0.91918    0.47683    0 
O2       O      0.63985    0.89315    0.47688    0 
C1       C      0.63198    0.9123     0.46973    0 
C2       C      0.64186    0.92207    0.45038    0 
C4       C      0.6622     0.9137     0.44237    0 
H2       H      0.6685     0.9008     0.4484     0 
C9       C      0.739      0.8806     0.4075     0 
H3       H      0.7311     0.873      0.4184     0 
C10      C      0.76       0.8722     0.3992     0 
H4       H      0.7661     0.8593     0.4053     0 
O2       O      0.61324    0.41918    0.97683    0 
O2       O      0.63985    0.39315    0.97688    0 
C1       C      0.63198    0.4123     0.96973    0 
C2       C      0.64186    0.42207    0.95038    0 
C4       C      0.6622     0.4137     0.94237    0 
H2       H      0.6685     0.4008     0.9484     0 
C9       C      0.739      0.3806     0.9075     0 
H3       H      0.7311     0.373      0.9184     0 
C10      C      0.76       0.3722     0.8992     0 
H4       H      0.7661     0.3593     0.9053     0 
O2       O      0.11324    0.08082    0.02317    0 
O2       O      0.13985    0.10685    0.02312    0 
C1       C      0.13198    0.0877     0.03027    0 
C2       C      0.14186    0.07793    0.04962    0 
C4       C      0.1622     0.0863     0.05763    0 
H2       H      0.1685     0.0992     0.0516     0 
C9       C      0.239      0.1194     0.0925     0 
H3       H      0.2311     0.127      0.0816     0 
C10      C      0.26       0.1278     0.1008     0 
H4       H      0.2661     0.1407     0.0947     0 
O2       O      0.11324    0.58082    0.52317    0 
O2       O      0.13985    0.60685    0.52312    0 
C1       C      0.13198    0.5877     0.53027    0 
C2       C      0.14186    0.57793    0.54962    0 
C4       C      0.1622     0.5863     0.55763    0 
H2       H      0.1685     0.5992     0.5516     0 
C9       C      0.239      0.6194     0.5925     0 
H3       H      0.2311     0.627      0.5816     0 
C10      C      0.26       0.6278     0.6008     0 
H4       H      0.2661     0.6407     0.5947     0 
O2       O      0.61324    0.08082    0.52317    0 
O2       O      0.63985    0.10685    0.52312    0 
C1       C      0.63198    0.0877     0.53027    0 
C2       C      0.64186    0.07793    0.54962    0 
C4       C      0.6622     0.0863     0.55763    0 
H2       H      0.6685     0.0992     0.5516     0 
C9       C      0.739      0.1194     0.5925     0 
H3       H      0.7311     0.127      0.5816     0 
C10      C      0.76       0.1278     0.6008     0 
H4       H      0.7661     0.1407     0.5947     0 
O2       O      0.61324    0.58082    0.02317    0 
O2       O      0.63985    0.60685    0.02312    0 
C1       C      0.63198    0.5877     0.03027    0 
C2       C      0.64186    0.57793    0.04962    0 
C4       C      0.6622     0.5863     0.05763    0 
H2       H      0.6685     0.5992     0.0516     0 
C9       C      0.739      0.6194     0.0925     0 
H3       H      0.7311     0.627      0.0816     0 
C10      C      0.76       0.6278     0.1008     0 
H4       H      0.7661     0.6407     0.0947     0 
Cu1      Cu     0          0.09462    0.09462    0 
Cu1      Cu     0          0.12604    0.12604    0 
Cu1      Cu     0          0.59462    0.59462    0 
Cu1      Cu     0          0.62604    0.62604    0 
Cu1      Cu     0.5        0.09462    0.59462    0 
Cu1      Cu     0.5        0.12604    0.62604    0 
Cu1      Cu     0.5        0.59462    0.09462    0 
Cu1      Cu     0.5        0.62604    0.12604    0 
Cu1      Cu     0          0.90538    0.09462    0 
Cu1      Cu     0          0.87396    0.12604    0 
Cu1      Cu     0          0.40538    0.59462    0 
Cu1      Cu     0          0.37396    0.62604    0 
Cu1      Cu     0.5        0.90538    0.59462    0 
Cu1      Cu     0.5        0.87396    0.62604    0 
Cu1      Cu     0.5        0.40538    0.09462    0 
Cu1      Cu     0.5        0.37396    0.12604    0 
Cu1      Cu     0          0.09462    0.90538    0 
Cu1      Cu     0          0.12604    0.87396    0 
Cu1      Cu     0          0.59462    0.40538    0 
Cu1      Cu     0          0.62604    0.37396    0 
Cu1      Cu     0.5        0.09462    0.40538    0 
Cu1      Cu     0.5        0.12604    0.37396    0 
Cu1      Cu     0.5        0.59462    0.90538    0 
Cu1      Cu     0.5        0.62604    0.87396    0 
Cu1      Cu     0          0.90538    0.90538    0 
Cu1      Cu     0          0.87396    0.87396    0 
Cu1      Cu     0          0.40538    0.40538    0 
Cu1      Cu     0          0.37396    0.37396    0 
Cu1      Cu     0.5        0.90538    0.40538    0 
Cu1      Cu     0.5        0.87396    0.37396    0 
Cu1      Cu     0.5        0.40538    0.90538    0 
Cu1      Cu     0.5        0.37396    0.87396    0 
Cu1      Cu     0.09462    0          0.09462    0 
Cu1      Cu     0.12604    0          0.12604    0 
Cu1      Cu     0.09462    0.5        0.59462    0 
Cu1      Cu     0.12604    0.5        0.62604    0 
Cu1      Cu     0.59462    0          0.59462    0 
Cu1      Cu     0.62604    0          0.62604    0 
Cu1      Cu     0.59462    0.5        0.09462    0 
Cu1      Cu     0.62604    0.5        0.12604    0 
Cu1      Cu     0.09462    0          0.90538    0 
Cu1      Cu     0.12604    0          0.87396    0 
Cu1      Cu     0.09462    0.5        0.40538    0 
Cu1      Cu     0.12604    0.5        0.37396    0 
Cu1      Cu     0.59462    0          0.40538    0 
Cu1      Cu     0.62604    0          0.37396    0 
Cu1      Cu     0.59462    0.5        0.90538    0 
Cu1      Cu     0.62604    0.5        0.87396    0 
Cu1      Cu     0.90538    0          0.09462    0 
Cu1      Cu     0.87396    0          0.12604    0 
Cu1      Cu     0.90538    0.5        0.59462    0 
Cu1      Cu     0.87396    0.5        0.62604    0 
Cu1      Cu     0.40538    0          0.59462    0 
Cu1      Cu     0.37396    0          0.62604    0 
Cu1      Cu     0.40538    0.5        0.09462    0 
Cu1      Cu     0.37396    0.5        0.12604    0 
Cu1      Cu     0.90538    0          0.90538    0 
Cu1      Cu     0.87396    0          0.87396    0 
Cu1      Cu     0.90538    0.5        0.40538    0 
Cu1      Cu     0.87396    0.5        0.37396    0 
Cu1      Cu     0.40538    0          0.40538    0 
Cu1      Cu     0.37396    0          0.37396    0 
Cu1      Cu     0.40538    0.5        0.90538    0 
Cu1      Cu     0.37396    0.5        0.87396    0 
Cu1      Cu     0.09462    0.09462    0          0 
Cu1      Cu     0.12604    0.12604    0          0 
Cu1      Cu     0.09462    0.59462    0.5        0 
Cu1      Cu     0.12604    0.62604    0.5        0 
Cu1      Cu     0.59462    0.09462    0.5        0 
Cu1      Cu     0.62604    0.12604    0.5        0 
Cu1      Cu     0.59462    0.59462    0          0 
Cu1      Cu     0.62604    0.62604    0          0 
Cu1      Cu     0.90538    0.09462    0          0 
Cu1      Cu     0.87396    0.12604    0          0 
Cu1      Cu     0.90538    0.59462    0.5        0 
Cu1      Cu     0.87396    0.62604    0.5        0 
Cu1      Cu     0.40538    0.09462    0.5        0 
Cu1      Cu     0.37396    0.12604    0.5        0 
Cu1      Cu     0.40538    0.59462    0          0 
Cu1      Cu     0.37396    0.62604    0          0 
Cu1      Cu     0.09462    0.90538    0          0 
Cu1      Cu     0.12604    0.87396    0          0 
Cu1      Cu     0.09462    0.40538    0.5        0 
Cu1      Cu     0.12604    0.37396    0.5        0 
Cu1      Cu     0.59462    0.90538    0.5        0 
Cu1      Cu     0.62604    0.87396    0.5        0 
Cu1      Cu     0.59462    0.40538    0          0 
Cu1      Cu     0.62604    0.37396    0          0 
Cu1      Cu     0.90538    0.90538    0          0 
Cu1      Cu     0.87396    0.87396    0          0 
Cu1      Cu     0.90538    0.40538    0.5        0 
Cu1      Cu     0.87396    0.37396    0.5        0 
Cu1      Cu     0.40538    0.90538    0.5        0 
Cu1      Cu     0.37396    0.87396    0.5        0 
Cu1      Cu     0.40538    0.40538    0          0 
Cu1      Cu     0.37396    0.37396    0          0 
C3       C      0.05976    0.05976    0.133      0 
H1       H      0.0538     0.0538     0.12       0 
C5       C      0.07479    0.07479    0.1727     0 
C6       C      0.08411    0.08411    0.1937     0 
C7       C      0.09152    0.09152    0.2104     0 
C8       C      0.1009     0.1009     0.2316     0 
C11      C      0.11712    0.11712    0.2709     0 
C12      C      0.127      0.127      0.2904     0 
C13      C      0.1356     0.1356     0.3077     0 
C14      C      0.1452     0.1452     0.3266     0 
C15      C      0.164      0.164      0.3641     0 
H5       H      0.1704     0.1704     0.3767     0 
C3       C      0.05976    0.55976    0.633      0 
H1       H      0.0538     0.5538     0.62       0 
C5       C      0.07479    0.57479    0.6727     0 
C6       C      0.08411    0.58411    0.6937     0 
C7       C      0.09152    0.59152    0.7104     0 
C8       C      0.1009     0.6009     0.7316     0 
C11      C      0.11712    0.61712    0.7709     0 
C12      C      0.127      0.627      0.7904     0 
C13      C      0.1356     0.6356     0.8077     0 
C14      C      0.1452     0.6452     0.8266     0 
C15      C      0.164      0.664      0.8641     0 
H5       H      0.1704     0.6704     0.8767     0 
C3       C      0.55976    0.05976    0.633      0 
H1       H      0.5538     0.0538     0.62       0 
C5       C      0.57479    0.07479    0.6727     0 
C6       C      0.58411    0.08411    0.6937     0 
C7       C      0.59152    0.09152    0.7104     0 
C8       C      0.6009     0.1009     0.7316     0 
C11      C      0.61712    0.11712    0.7709     0 
C12      C      0.627      0.127      0.7904     0 
C13      C      0.6356     0.1356     0.8077     0 
C14      C      0.6452     0.1452     0.8266     0 
C15      C      0.664      0.164      0.8641     0 
H5       H      0.6704     0.1704     0.8767     0 
C3       C      0.55976    0.55976    0.133      0 
H1       H      0.5538     0.5538     0.12       0 
C5       C      0.57479    0.57479    0.1727     0 
C6       C      0.58411    0.58411    0.1937     0 
C7       C      0.59152    0.59152    0.2104     0 
C8       C      0.6009     0.6009     0.2316     0 
C11      C      0.61712    0.61712    0.2709     0 
C12      C      0.627      0.627      0.2904     0 
C13      C      0.6356     0.6356     0.3077     0 
C14      C      0.6452     0.6452     0.3266     0 
C15      C      0.664      0.664      0.3641     0 
H5       H      0.6704     0.6704     0.3767     0 
C3       C      0.94024    0.94024    0.133      0 
H1       H      0.9462     0.9462     0.12       0 
C5       C      0.92521    0.92521    0.1727     0 
C6       C      0.91589    0.91589    0.1937     0 
C7       C      0.90848    0.90848    0.2104     0 
C8       C      0.8991     0.8991     0.2316     0 
C11      C      0.88288    0.88288    0.2709     0 
C12      C      0.873      0.873      0.2904     0 
C13      C      0.8644     0.8644     0.3077     0 
C14      C      0.8548     0.8548     0.3266     0 
C15      C      0.836      0.836      0.3641     0 
H5       H      0.8296     0.8296     0.3767     0 
C3       C      0.94024    0.44024    0.633      0 
H1       H      0.9462     0.4462     0.62       0 
C5       C      0.92521    0.42521    0.6727     0 
C6       C      0.91589    0.41589    0.6937     0 
C7       C      0.90848    0.40848    0.7104     0 
C8       C      0.8991     0.3991     0.7316     0 
C11      C      0.88288    0.38288    0.7709     0 
C12      C      0.873      0.373      0.7904     0 
C13      C      0.8644     0.3644     0.8077     0 
C14      C      0.8548     0.3548     0.8266     0 
C15      C      0.836      0.336      0.8641     0 
H5       H      0.8296     0.3296     0.8767     0 
C3       C      0.44024    0.94024    0.633      0 
H1       H      0.4462     0.9462     0.62       0 
C5       C      0.42521    0.92521    0.6727     0 
C6       C      0.41589    0.91589    0.6937     0 
C7       C      0.40848    0.90848    0.7104     0 
C8       C      0.3991     0.8991     0.7316     0 
C11      C      0.38288    0.88288    0.7709     0 
C12      C      0.373      0.873      0.7904     0 
C13      C      0.3644     0.8644     0.8077     0 
C14      C      0.3548     0.8548     0.8266     0 
C15      C      0.336      0.836      0.8641     0 
H5       H      0.3296     0.8296     0.8767     0 
C3       C      0.44024    0.44024    0.133      0 
H1       H      0.4462     0.4462     0.12       0 
C5       C      0.42521    0.42521    0.1727     0 
C6       C      0.41589    0.41589    0.1937     0 
C7       C      0.40848    0.40848    0.2104     0 
C8       C      0.3991     0.3991     0.2316     0 
C11      C      0.38288    0.38288    0.2709     0 
C12      C      0.373      0.373      0.2904     0 
C13      C      0.3644     0.3644     0.3077     0 
C14      C      0.3548     0.3548     0.3266     0 
C15      C      0.336      0.336      0.3641     0 
H5       H      0.3296     0.3296     0.3767     0 
C3       C      0.94024    0.05976    0.867      0 
H1       H      0.9462     0.0538     0.88       0 
C5       C      0.92521    0.07479    0.8273     0 
C6       C      0.91589    0.08411    0.8063     0 
C7       C      0.90848    0.09152    0.7896     0 
C8       C      0.8991     0.1009     0.7684     0 
C11      C      0.88288    0.11712    0.7291     0 
C12      C      0.873      0.127      0.7096     0 
C13      C      0.8644     0.1356     0.6923     0 
C14      C      0.8548     0.1452     0.6734     0 
C15      C      0.836      0.164      0.6359     0 
H5       H      0.8296     0.1704     0.6233     0 
C3       C      0.94024    0.55976    0.367      0 
H1       H      0.9462     0.5538     0.38       0 
C5       C      0.92521    0.57479    0.3273     0 
C6       C      0.91589    0.58411    0.3063     0 
C7       C      0.90848    0.59152    0.2896     0 
C8       C      0.8991     0.6009     0.2684     0 
C11      C      0.88288    0.61712    0.2291     0 
C12      C      0.873      0.627      0.2096     0 
C13      C      0.8644     0.6356     0.1923     0 
C14      C      0.8548     0.6452     0.1734     0 
C15      C      0.836      0.664      0.1359     0 
H5       H      0.8296     0.6704     0.1233     0 
C3       C      0.44024    0.05976    0.367      0 
H1       H      0.4462     0.0538     0.38       0 
C5       C      0.42521    0.07479    0.3273     0 
C6       C      0.41589    0.08411    0.3063     0 
C7       C      0.40848    0.09152    0.2896     0 
C8       C      0.3991     0.1009     0.2684     0 
C11      C      0.38288    0.11712    0.2291     0 
C12      C      0.373      0.127      0.2096     0 
C13      C      0.3644     0.1356     0.1923     0 
C14      C      0.3548     0.1452     0.1734     0 
C15      C      0.336      0.164      0.1359     0 
H5       H      0.3296     0.1704     0.1233     0 
C3       C      0.44024    0.55976    0.867      0 
H1       H      0.4462     0.5538     0.88       0 
C5       C      0.42521    0.57479    0.8273     0 
C6       C      0.41589    0.58411    0.8063     0 
C7       C      0.40848    0.59152    0.7896     0 
C8       C      0.3991     0.6009     0.7684     0 
C11      C      0.38288    0.61712    0.7291     0 
C12      C      0.373      0.627      0.7096     0 
C13      C      0.3644     0.6356     0.6923     0 
C14      C      0.3548     0.6452     0.6734     0 
C15      C      0.336      0.664      0.6359     0 
H5       H      0.3296     0.6704     0.6233     0 
C3       C      0.05976    0.94024    0.867      0 
H1       H      0.0538     0.9462     0.88       0 
C5       C      0.07479    0.92521    0.8273     0 
C6       C      0.08411    0.91589    0.8063     0 
C7       C      0.09152    0.90848    0.7896     0 
C8       C      0.1009     0.8991     0.7684     0 
C11      C      0.11712    0.88288    0.7291     0 
C12      C      0.127      0.873      0.7096     0 
C13      C      0.1356     0.8644     0.6923     0 
C14      C      0.1452     0.8548     0.6734     0 
C15      C      0.164      0.836      0.6359     0 
H5       H      0.1704     0.8296     0.6233     0 
C3       C      0.05976    0.44024    0.367      0 
H1       H      0.0538     0.4462     0.38       0 
C5       C      0.07479    0.42521    0.3273     0 
C6       C      0.08411    0.41589    0.3063     0 
C7       C      0.09152    0.40848    0.2896     0 
C8       C      0.1009     0.3991     0.2684     0 
C11      C      0.11712    0.38288    0.2291     0 
C12      C      0.127      0.373      0.2096     0 
C13      C      0.1356     0.3644     0.1923     0 
C14      C      0.1452     0.3548     0.1734     0 
C15      C      0.164      0.336      0.1359     0 
H5       H      0.1704     0.3296     0.1233     0 
C3       C      0.55976    0.94024    0.367      0 
H1       H      0.5538     0.9462     0.38       0 
C5       C      0.57479    0.92521    0.3273     0 
C6       C      0.58411    0.91589    0.3063     0 
C7       C      0.59152    0.90848    0.2896     0 
C8       C      0.6009     0.8991     0.2684     0 
C11      C      0.61712    0.88288    0.2291     0 
C12      C      0.627      0.873      0.2096     0 
C13      C      0.6356     0.8644     0.1923     0 
C14      C      0.6452     0.8548     0.1734     0 
C15      C      0.664      0.836      0.1359     0 
H5       H      0.6704     0.8296     0.1233     0 
C3       C      0.55976    0.44024    0.867      0 
H1       H      0.5538     0.4462     0.88       0 
C5       C      0.57479    0.42521    0.8273     0 
C6       C      0.58411    0.41589    0.8063     0 
C7       C      0.59152    0.40848    0.7896     0 
C8       C      0.6009     0.3991     0.7684     0 
C11      C      0.61712    0.38288    0.7291     0 
C12      C      0.627      0.373      0.7096     0 
C13      C      0.6356     0.3644     0.6923     0 
C14      C      0.6452     0.3548     0.6734     0 
C15      C      0.664      0.336      0.6359     0 
H5       H      0.6704     0.3296     0.6233     0 
C3       C      0.133      0.05976    0.05976    0 
H1       H      0.12       0.0538     0.0538     0 
C5       C      0.1727     0.07479    0.07479    0 
C6       C      0.1937     0.08411    0.08411    0 
C7       C      0.2104     0.09152    0.09152    0 
C8       C      0.2316     0.1009     0.1009     0 
C11      C      0.2709     0.11712    0.11712    0 
C12      C      0.2904     0.127      0.127      0 
C13      C      0.3077     0.1356     0.1356     0 
C14      C      0.3266     0.1452     0.1452     0 
C15      C      0.3641     0.164      0.164      0 
H5       H      0.3767     0.1704     0.1704     0 
C3       C      0.133      0.55976    0.55976    0 
H1       H      0.12       0.5538     0.5538     0 
C5       C      0.1727     0.57479    0.57479    0 
C6       C      0.1937     0.58411    0.58411    0 
C7       C      0.2104     0.59152    0.59152    0 
C8       C      0.2316     0.6009     0.6009     0 
C11      C      0.2709     0.61712    0.61712    0 
C12      C      0.2904     0.627      0.627      0 
C13      C      0.3077     0.6356     0.6356     0 
C14      C      0.3266     0.6452     0.6452     0 
C15      C      0.3641     0.664      0.664      0 
H5       H      0.3767     0.6704     0.6704     0 
C3       C      0.633      0.05976    0.55976    0 
H1       H      0.62       0.0538     0.5538     0 
C5       C      0.6727     0.07479    0.57479    0 
C6       C      0.6937     0.08411    0.58411    0 
C7       C      0.7104     0.09152    0.59152    0 
C8       C      0.7316     0.1009     0.6009     0 
C11      C      0.7709     0.11712    0.61712    0 
C12      C      0.7904     0.127      0.627      0 
C13      C      0.8077     0.1356     0.6356     0 
C14      C      0.8266     0.1452     0.6452     0 
C15      C      0.8641     0.164      0.664      0 
H5       H      0.8767     0.1704     0.6704     0 
C3       C      0.633      0.55976    0.05976    0 
H1       H      0.62       0.5538     0.0538     0 
C5       C      0.6727     0.57479    0.07479    0 
C6       C      0.6937     0.58411    0.08411    0 
C7       C      0.7104     0.59152    0.09152    0 
C8       C      0.7316     0.6009     0.1009     0 
C11      C      0.7709     0.61712    0.11712    0 
C12      C      0.7904     0.627      0.127      0 
C13      C      0.8077     0.6356     0.1356     0 
C14      C      0.8266     0.6452     0.1452     0 
C15      C      0.8641     0.664      0.164      0 
H5       H      0.8767     0.6704     0.1704     0 
C3       C      0.133      0.94024    0.94024    0 
H1       H      0.12       0.9462     0.9462     0 
C5       C      0.1727     0.92521    0.92521    0 
C6       C      0.1937     0.91589    0.91589    0 
C7       C      0.2104     0.90848    0.90848    0 
C8       C      0.2316     0.8991     0.8991     0 
C11      C      0.2709     0.88288    0.88288    0 
C12      C      0.2904     0.873      0.873      0 
C13      C      0.3077     0.8644     0.8644     0 
C14      C      0.3266     0.8548     0.8548     0 
C15      C      0.3641     0.836      0.836      0 
H5       H      0.3767     0.8296     0.8296     0 
C3       C      0.133      0.44024    0.44024    0 
H1       H      0.12       0.4462     0.4462     0 
C5       C      0.1727     0.42521    0.42521    0 
C6       C      0.1937     0.41589    0.41589    0 
C7       C      0.2104     0.40848    0.40848    0 
C8       C      0.2316     0.3991     0.3991     0 
C11      C      0.2709     0.38288    0.38288    0 
C12      C      0.2904     0.373      0.373      0 
C13      C      0.3077     0.3644     0.3644     0 
C14      C      0.3266     0.3548     0.3548     0 
C15      C      0.3641     0.336      0.336      0 
H5       H      0.3767     0.3296     0.3296     0 
C3       C      0.633      0.94024    0.44024    0 
H1       H      0.62       0.9462     0.4462     0 
C5       C      0.6727     0.92521    0.42521    0 
C6       C      0.6937     0.91589    0.41589    0 
C7       C      0.7104     0.90848    0.40848    0 
C8       C      0.7316     0.8991     0.3991     0 
C11      C      0.7709     0.88288    0.38288    0 
C12      C      0.7904     0.873      0.373      0 
C13      C      0.8077     0.8644     0.3644     0 
C14      C      0.8266     0.8548     0.3548     0 
C15      C      0.8641     0.836      0.336      0 
H5       H      0.8767     0.8296     0.3296     0 
C3       C      0.633      0.44024    0.94024    0 
H1       H      0.62       0.4462     0.9462     0 
C5       C      0.6727     0.42521    0.92521    0 
C6       C      0.6937     0.41589    0.91589    0 
C7       C      0.7104     0.40848    0.90848    0 
C8       C      0.7316     0.3991     0.8991     0 
C11      C      0.7709     0.38288    0.88288    0 
C12      C      0.7904     0.373      0.873      0 
C13      C      0.8077     0.3644     0.8644     0 
C14      C      0.8266     0.3548     0.8548     0 
C15      C      0.8641     0.336      0.836      0 
H5       H      0.8767     0.3296     0.8296     0 
C3       C      0.867      0.94024    0.05976    0 
H1       H      0.88       0.9462     0.0538     0 
C5       C      0.8273     0.92521    0.07479    0 
C6       C      0.8063     0.91589    0.08411    0 
C7       C      0.7896     0.90848    0.09152    0 
C8       C      0.7684     0.8991     0.1009     0 
C11      C      0.7291     0.88288    0.11712    0 
C12      C      0.7096     0.873      0.127      0 
C13      C      0.6923     0.8644     0.1356     0 
C14      C      0.6734     0.8548     0.1452     0 
C15      C      0.6359     0.836      0.164      0 
H5       H      0.6233     0.8296     0.1704     0 
C3       C      0.867      0.44024    0.55976    0 
H1       H      0.88       0.4462     0.5538     0 
C5       C      0.8273     0.42521    0.57479    0 
C6       C      0.8063     0.41589    0.58411    0 
C7       C      0.7896     0.40848    0.59152    0 
C8       C      0.7684     0.3991     0.6009     0 
C11      C      0.7291     0.38288    0.61712    0 
C12      C      0.7096     0.373      0.627      0 
C13      C      0.6923     0.3644     0.6356     0 
C14      C      0.6734     0.3548     0.6452     0 
C15      C      0.6359     0.336      0.664      0 
H5       H      0.6233     0.3296     0.6704     0 
C3       C      0.367      0.94024    0.55976    0 
H1       H      0.38       0.9462     0.5538     0 
C5       C      0.3273     0.92521    0.57479    0 
C6       C      0.3063     0.91589    0.58411    0 
C7       C      0.2896     0.90848    0.59152    0 
C8       C      0.2684     0.8991     0.6009     0 
C11      C      0.2291     0.88288    0.61712    0 
C12      C      0.2096     0.873      0.627      0 
C13      C      0.1923     0.8644     0.6356     0 
C14      C      0.1734     0.8548     0.6452     0 
C15      C      0.1359     0.836      0.664      0 
H5       H      0.1233     0.8296     0.6704     0 
C3       C      0.367      0.44024    0.05976    0 
H1       H      0.38       0.4462     0.0538     0 
C5       C      0.3273     0.42521    0.07479    0 
C6       C      0.3063     0.41589    0.08411    0 
C7       C      0.2896     0.40848    0.09152    0 
C8       C      0.2684     0.3991     0.1009     0 
C11      C      0.2291     0.38288    0.11712    0 
C12      C      0.2096     0.373      0.127      0 
C13      C      0.1923     0.3644     0.1356     0 
C14      C      0.1734     0.3548     0.1452     0 
C15      C      0.1359     0.336      0.164      0 
H5       H      0.1233     0.3296     0.1704     0 
C3       C      0.867      0.05976    0.94024    0 
H1       H      0.88       0.0538     0.9462     0 
C5       C      0.8273     0.07479    0.92521    0 
C6       C      0.8063     0.08411    0.91589    0 
C7       C      0.7896     0.09152    0.90848    0 
C8       C      0.7684     0.1009     0.8991     0 
C11      C      0.7291     0.11712    0.88288    0 
C12      C      0.7096     0.127      0.873      0 
C13      C      0.6923     0.1356     0.8644     0 
C14      C      0.6734     0.1452     0.8548     0 
C15      C      0.6359     0.164      0.836      0 
H5       H      0.6233     0.1704     0.8296     0 
C3       C      0.867      0.55976    0.44024    0 
H1       H      0.88       0.5538     0.4462     0 
C5       C      0.8273     0.57479    0.42521    0 
C6       C      0.8063     0.58411    0.41589    0 
C7       C      0.7896     0.59152    0.40848    0 
C8       C      0.7684     0.6009     0.3991     0 
C11      C      0.7291     0.61712    0.38288    0 
C12      C      0.7096     0.627      0.373      0 
C13      C      0.6923     0.6356     0.3644     0 
C14      C      0.6734     0.6452     0.3548     0 
C15      C      0.6359     0.664      0.336      0 
H5       H      0.6233     0.6704     0.3296     0 
C3       C      0.367      0.05976    0.44024    0 
H1       H      0.38       0.0538     0.4462     0 
C5       C      0.3273     0.07479    0.42521    0 
C6       C      0.3063     0.08411    0.41589    0 
C7       C      0.2896     0.09152    0.40848    0 
C8       C      0.2684     0.1009     0.3991     0 
C11      C      0.2291     0.11712    0.38288    0 
C12      C      0.2096     0.127      0.373      0 
C13      C      0.1923     0.1356     0.3644     0 
C14      C      0.1734     0.1452     0.3548     0 
C15      C      0.1359     0.164      0.336      0 
H5       H      0.1233     0.1704     0.3296     0 
C3       C      0.367      0.55976    0.94024    0 
H1       H      0.38       0.5538     0.9462     0 
C5       C      0.3273     0.57479    0.92521    0 
C6       C      0.3063     0.58411    0.91589    0 
C7       C      0.2896     0.59152    0.90848    0 
C8       C      0.2684     0.6009     0.8991     0 
C11      C      0.2291     0.61712    0.88288    0 
C12      C      0.2096     0.627      0.873      0 
C13      C      0.1923     0.6356     0.8644     0 
C14      C      0.1734     0.6452     0.8548     0 
C15      C      0.1359     0.664      0.836      0 
H5       H      0.1233     0.6704     0.8296     0 
C3       C      0.05976    0.133      0.05976    0 
H1       H      0.0538     0.12       0.0538     0 
C5       C      0.07479    0.1727     0.07479    0 
C6       C      0.08411    0.1937     0.08411    0 
C7       C      0.09152    0.2104     0.09152    0 
C8       C      0.1009     0.2316     0.1009     0 
C11      C      0.11712    0.2709     0.11712    0 
C12      C      0.127      0.2904     0.127      0 
C13      C      0.1356     0.3077     0.1356     0 
C14      C      0.1452     0.3266     0.1452     0 
C15      C      0.164      0.3641     0.164      0 
H5       H      0.1704     0.3767     0.1704     0 
C3       C      0.05976    0.633      0.55976    0 
H1       H      0.0538     0.62       0.5538     0 
C5       C      0.07479    0.6727     0.57479    0 
C6       C      0.08411    0.6937     0.58411    0 
C7       C      0.09152    0.7104     0.59152    0 
C8       C      0.1009     0.7316     0.6009     0 
C11      C      0.11712    0.7709     0.61712    0 
C12      C      0.127      0.7904     0.627      0 
C13      C      0.1356     0.8077     0.6356     0 
C14      C      0.1452     0.8266     0.6452     0 
C15      C      0.164      0.8641     0.664      0 
H5       H      0.1704     0.8767     0.6704     0 
C3       C      0.55976    0.133      0.55976    0 
H1       H      0.5538     0.12       0.5538     0 
C5       C      0.57479    0.1727     0.57479    0 
C6       C      0.58411    0.1937     0.58411    0 
C7       C      0.59152    0.2104     0.59152    0 
C8       C      0.6009     0.2316     0.6009     0 
C11      C      0.61712    0.2709     0.61712    0 
C12      C      0.627      0.2904     0.627      0 
C13      C      0.6356     0.3077     0.6356     0 
C14      C      0.6452     0.3266     0.6452     0 
C15      C      0.664      0.3641     0.664      0 
H5       H      0.6704     0.3767     0.6704     0 
C3       C      0.55976    0.633      0.05976    0 
H1       H      0.5538     0.62       0.0538     0 
C5       C      0.57479    0.6727     0.07479    0 
C6       C      0.58411    0.6937     0.08411    0 
C7       C      0.59152    0.7104     0.09152    0 
C8       C      0.6009     0.7316     0.1009     0 
C11      C      0.61712    0.7709     0.11712    0 
C12      C      0.627      0.7904     0.127      0 
C13      C      0.6356     0.8077     0.1356     0 
C14      C      0.6452     0.8266     0.1452     0 
C15      C      0.664      0.8641     0.164      0 
H5       H      0.6704     0.8767     0.1704     0 
C3       C      0.94024    0.133      0.94024    0 
H1       H      0.9462     0.12       0.9462     0 
C5       C      0.92521    0.1727     0.92521    0 
C6       C      0.91589    0.1937     0.91589    0 
C7       C      0.90848    0.2104     0.90848    0 
C8       C      0.8991     0.2316     0.8991     0 
C11      C      0.88288    0.2709     0.88288    0 
C12      C      0.873      0.2904     0.873      0 
C13      C      0.8644     0.3077     0.8644     0 
C14      C      0.8548     0.3266     0.8548     0 
C15      C      0.836      0.3641     0.836      0 
H5       H      0.8296     0.3767     0.8296     0 
C3       C      0.94024    0.633      0.44024    0 
H1       H      0.9462     0.62       0.4462     0 
C5       C      0.92521    0.6727     0.42521    0 
C6       C      0.91589    0.6937     0.41589    0 
C7       C      0.90848    0.7104     0.40848    0 
C8       C      0.8991     0.7316     0.3991     0 
C11      C      0.88288    0.7709     0.38288    0 
C12      C      0.873      0.7904     0.373      0 
C13      C      0.8644     0.8077     0.3644     0 
C14      C      0.8548     0.8266     0.3548     0 
C15      C      0.836      0.8641     0.336      0 
H5       H      0.8296     0.8767     0.3296     0 
C3       C      0.44024    0.133      0.44024    0 
H1       H      0.4462     0.12       0.4462     0 
C5       C      0.42521    0.1727     0.42521    0 
C6       C      0.41589    0.1937     0.41589    0 
C7       C      0.40848    0.2104     0.40848    0 
C8       C      0.3991     0.2316     0.3991     0 
C11      C      0.38288    0.2709     0.38288    0 
C12      C      0.373      0.2904     0.373      0 
C13      C      0.3644     0.3077     0.3644     0 
C14      C      0.3548     0.3266     0.3548     0 
C15      C      0.336      0.3641     0.336      0 
H5       H      0.3296     0.3767     0.3296     0 
C3       C      0.44024    0.633      0.94024    0 
H1       H      0.4462     0.62       0.9462     0 
C5       C      0.42521    0.6727     0.92521    0 
C6       C      0.41589    0.6937     0.91589    0 
C7       C      0.40848    0.7104     0.90848    0 
C8       C      0.3991     0.7316     0.8991     0 
C11      C      0.38288    0.7709     0.88288    0 
C12      C      0.373      0.7904     0.873      0 
C13      C      0.3644     0.8077     0.8644     0 
C14      C      0.3548     0.8266     0.8548     0 
C15      C      0.336      0.8641     0.836      0 
H5       H      0.3296     0.8767     0.8296     0 
C3       C      0.05976    0.867      0.94024    0 
H1       H      0.0538     0.88       0.9462     0 
C5       C      0.07479    0.8273     0.92521    0 
C6       C      0.08411    0.8063     0.91589    0 
C7       C      0.09152    0.7896     0.90848    0 
C8       C      0.1009     0.7684     0.8991     0 
C11      C      0.11712    0.7291     0.88288    0 
C12      C      0.127      0.7096     0.873      0 
C13      C      0.1356     0.6923     0.8644     0 
C14      C      0.1452     0.6734     0.8548     0 
C15      C      0.164      0.6359     0.836      0 
H5       H      0.1704     0.6233     0.8296     0 
C3       C      0.05976    0.367      0.44024    0 
H1       H      0.0538     0.38       0.4462     0 
C5       C      0.07479    0.3273     0.42521    0 
C6       C      0.08411    0.3063     0.41589    0 
C7       C      0.09152    0.2896     0.40848    0 
C8       C      0.1009     0.2684     0.3991     0 
C11      C      0.11712    0.2291     0.38288    0 
C12      C      0.127      0.2096     0.373      0 
C13      C      0.1356     0.1923     0.3644     0 
C14      C      0.1452     0.1734     0.3548     0 
C15      C      0.164      0.1359     0.336      0 
H5       H      0.1704     0.1233     0.3296     0 
C3       C      0.55976    0.867      0.44024    0 
H1       H      0.5538     0.88       0.4462     0 
C5       C      0.57479    0.8273     0.42521    0 
C6       C      0.58411    0.8063     0.41589    0 
C7       C      0.59152    0.7896     0.40848    0 
C8       C      0.6009     0.7684     0.3991     0 
C11      C      0.61712    0.7291     0.38288    0 
C12      C      0.627      0.7096     0.373      0 
C13      C      0.6356     0.6923     0.3644     0 
C14      C      0.6452     0.6734     0.3548     0 
C15      C      0.664      0.6359     0.336      0 
H5       H      0.6704     0.6233     0.3296     0 
C3       C      0.55976    0.367      0.94024    0 
H1       H      0.5538     0.38       0.9462     0 
C5       C      0.57479    0.3273     0.92521    0 
C6       C      0.58411    0.3063     0.91589    0 
C7       C      0.59152    0.2896     0.90848    0 
C8       C      0.6009     0.2684     0.8991     0 
C11      C      0.61712    0.2291     0.88288    0 
C12      C      0.627      0.2096     0.873      0 
C13      C      0.6356     0.1923     0.8644     0 
C14      C      0.6452     0.1734     0.8548     0 
C15      C      0.664      0.1359     0.836      0 
H5       H      0.6704     0.1233     0.8296     0 
C3       C      0.94024    0.867      0.05976    0 
H1       H      0.9462     0.88       0.0538     0 
C5       C      0.92521    0.8273     0.07479    0 
C6       C      0.91589    0.8063     0.08411    0 
C7       C      0.90848    0.7896     0.09152    0 
C8       C      0.8991     0.7684     0.1009     0 
C11      C      0.88288    0.7291     0.11712    0 
C12      C      0.873      0.7096     0.127      0 
C13      C      0.8644     0.6923     0.1356     0 
C14      C      0.8548     0.6734     0.1452     0 
C15      C      0.836      0.6359     0.164      0 
H5       H      0.8296     0.6233     0.1704     0 
C3       C      0.94024    0.367      0.55976    0 
H1       H      0.9462     0.38       0.5538     0 
C5       C      0.92521    0.3273     0.57479    0 
C6       C      0.91589    0.3063     0.58411    0 
C7       C      0.90848    0.2896     0.59152    0 
C8       C      0.8991     0.2684     0.6009     0 
C11      C      0.88288    0.2291     0.61712    0 
C12      C      0.873      0.2096     0.627      0 
C13      C      0.8644     0.1923     0.6356     0 
C14      C      0.8548     0.1734     0.6452     0 
C15      C      0.836      0.1359     0.664      0 
H5       H      0.8296     0.1233     0.6704     0 
C3       C      0.44024    0.867      0.55976    0 
H1       H      0.4462     0.88       0.5538     0 
C5       C      0.42521    0.8273     0.57479    0 
C6       C      0.41589    0.8063     0.58411    0 
C7       C      0.40848    0.7896     0.59152    0 
C8       C      0.3991     0.7684     0.6009     0 
C11      C      0.38288    0.7291     0.61712    0 
C12      C      0.373      0.7096     0.627      0 
C13      C      0.3644     0.6923     0.6356     0 
C14      C      0.3548     0.6734     0.6452     0 
C15      C      0.336      0.6359     0.664      0 
H5       H      0.3296     0.6233     0.6704     0 
C3       C      0.44024    0.367      0.05976    0 
H1       H      0.4462     0.38       0.0538     0 
C5       C      0.42521    0.3273     0.07479    0 
C6       C      0.41589    0.3063     0.08411    0 
C7       C      0.40848    0.2896     0.09152    0 
C8       C      0.3991     0.2684     0.1009     0 
C11      C      0.38288    0.2291     0.11712    0 
C12      C      0.373      0.2096     0.127      0 
C13      C      0.3644     0.1923     0.1356     0 
C14      C      0.3548     0.1734     0.1452     0 
C15      C      0.336      0.1359     0.164      0 
H5       H      0.3296     0.1233     0.1704     0 
C3       C      0.05976    0.05976    0.867      0 
H1       H      0.0538     0.0538     0.88       0 
C5       C      0.07479    0.07479    0.8273     0 
C6       C      0.08411    0.08411    0.8063     0 
C7       C      0.09152    0.09152    0.7896     0 
C8       C      0.1009     0.1009     0.7684     0 
C11      C      0.11712    0.11712    0.7291     0 
C12      C      0.127      0.127      0.7096     0 
C13      C      0.1356     0.1356     0.6923     0 
C14      C      0.1452     0.1452     0.6734     0 
C15      C      0.164      0.164      0.6359     0 
H5       H      0.1704     0.1704     0.6233     0 
C3       C      0.05976    0.55976    0.367      0 
H1       H      0.0538     0.5538     0.38       0 
C5       C      0.07479    0.57479    0.3273     0 
C6       C      0.08411    0.58411    0.3063     0 
C7       C      0.09152    0.59152    0.2896     0 
C8       C      0.1009     0.6009     0.2684     0 
C11      C      0.11712    0.61712    0.2291     0 
C12      C      0.127      0.627      0.2096     0 
C13      C      0.1356     0.6356     0.1923     0 
C14      C      0.1452     0.6452     0.1734     0 
C15      C      0.164      0.664      0.1359     0 
H5       H      0.1704     0.6704     0.1233     0 
C3       C      0.55976    0.05976    0.367      0 
H1       H      0.5538     0.0538     0.38       0 
C5       C      0.57479    0.07479    0.3273     0 
C6       C      0.58411    0.08411    0.3063     0 
C7       C      0.59152    0.09152    0.2896     0 
C8       C      0.6009     0.1009     0.2684     0 
C11      C      0.61712    0.11712    0.2291     0 
C12      C      0.627      0.127      0.2096     0 
C13      C      0.6356     0.1356     0.1923     0 
C14      C      0.6452     0.1452     0.1734     0 
C15      C      0.664      0.164      0.1359     0 
H5       H      0.6704     0.1704     0.1233     0 
C3       C      0.55976    0.55976    0.867      0 
H1       H      0.5538     0.5538     0.88       0 
C5       C      0.57479    0.57479    0.8273     0 
C6       C      0.58411    0.58411    0.8063     0 
C7       C      0.59152    0.59152    0.7896     0 
C8       C      0.6009     0.6009     0.7684     0 
C11      C      0.61712    0.61712    0.7291     0 
C12      C      0.627      0.627      0.7096     0 
C13      C      0.6356     0.6356     0.6923     0 
C14      C      0.6452     0.6452     0.6734     0 
C15      C      0.664      0.664      0.6359     0 
H5       H      0.6704     0.6704     0.6233     0 
C3       C      0.94024    0.94024    0.867      0 
H1       H      0.9462     0.9462     0.88       0 
C5       C      0.92521    0.92521    0.8273     0 
C6       C      0.91589    0.91589    0.8063     0 
C7       C      0.90848    0.90848    0.7896     0 
C8       C      0.8991     0.8991     0.7684     0 
C11      C      0.88288    0.88288    0.7291     0 
C12      C      0.873      0.873      0.7096     0 
C13      C      0.8644     0.8644     0.6923     0 
C14      C      0.8548     0.8548     0.6734     0 
C15      C      0.836      0.836      0.6359     0 
H5       H      0.8296     0.8296     0.6233     0 
C3       C      0.94024    0.44024    0.367      0 
H1       H      0.9462     0.4462     0.38       0 
C5       C      0.92521    0.42521    0.3273     0 
C6       C      0.91589    0.41589    0.3063     0 
C7       C      0.90848    0.40848    0.2896     0 
C8       C      0.8991     0.3991     0.2684     0 
C11      C      0.88288    0.38288    0.2291     0 
C12      C      0.873      0.373      0.2096     0 
C13      C      0.8644     0.3644     0.1923     0 
C14      C      0.8548     0.3548     0.1734     0 
C15      C      0.836      0.336      0.1359     0 
H5       H      0.8296     0.3296     0.1233     0 
C3       C      0.44024    0.94024    0.367      0 
H1       H      0.4462     0.9462     0.38       0 
C5       C      0.42521    0.92521    0.3273     0 
C6       C      0.41589    0.91589    0.3063     0 
C7       C      0.40848    0.90848    0.2896     0 
C8       C      0.3991     0.8991     0.2684     0 
C11      C      0.38288    0.88288    0.2291     0 
C12      C      0.373      0.873      0.2096     0 
C13      C      0.3644     0.8644     0.1923     0 
C14      C      0.3548     0.8548     0.1734     0 
C15      C      0.336      0.836      0.1359     0 
H5       H      0.3296     0.8296     0.1233     0 
C3       C      0.44024    0.44024    0.867      0 
H1       H      0.4462     0.4462     0.88       0 
C5       C      0.42521    0.42521    0.8273     0 
C6       C      0.41589    0.41589    0.8063     0 
C7       C      0.40848    0.40848    0.7896     0 
C8       C      0.3991     0.3991     0.7684     0 
C11      C      0.38288    0.38288    0.7291     0 
C12      C      0.373      0.373      0.7096     0 
C13      C      0.3644     0.3644     0.6923     0 
C14      C      0.3548     0.3548     0.6734     0 
C15      C      0.336      0.336      0.6359     0 
H5       H      0.3296     0.3296     0.6233     0 
C3       C      0.05976    0.94024    0.133      0 
H1       H      0.0538     0.9462     0.12       0 
C5       C      0.07479    0.92521    0.1727     0 
C6       C      0.08411    0.91589    0.1937     0 
C7       C      0.09152    0.90848    0.2104     0 
C8       C      0.1009     0.8991     0.2316     0 
C11      C      0.11712    0.88288    0.2709     0 
C12      C      0.127      0.873      0.2904     0 
C13      C      0.1356     0.8644     0.3077     0 
C14      C      0.1452     0.8548     0.3266     0 
C15      C      0.164      0.836      0.3641     0 
H5       H      0.1704     0.8296     0.3767     0 
C3       C      0.05976    0.44024    0.633      0 
H1       H      0.0538     0.4462     0.62       0 
C5       C      0.07479    0.42521    0.6727     0 
C6       C      0.08411    0.41589    0.6937     0 
C7       C      0.09152    0.40848    0.7104     0 
C8       C      0.1009     0.3991     0.7316     0 
C11      C      0.11712    0.38288    0.7709     0 
C12      C      0.127      0.373      0.7904     0 
C13      C      0.1356     0.3644     0.8077     0 
C14      C      0.1452     0.3548     0.8266     0 
C15      C      0.164      0.336      0.8641     0 
H5       H      0.1704     0.3296     0.8767     0 
C3       C      0.55976    0.94024    0.633      0 
H1       H      0.5538     0.9462     0.62       0 
C5       C      0.57479    0.92521    0.6727     0 
C6       C      0.58411    0.91589    0.6937     0 
C7       C      0.59152    0.90848    0.7104     0 
C8       C      0.6009     0.8991     0.7316     0 
C11      C      0.61712    0.88288    0.7709     0 
C12      C      0.627      0.873      0.7904     0 
C13      C      0.6356     0.8644     0.8077     0 
C14      C      0.6452     0.8548     0.8266     0 
C15      C      0.664      0.836      0.8641     0 
H5       H      0.6704     0.8296     0.8767     0 
C3       C      0.55976    0.44024    0.133      0 
H1       H      0.5538     0.4462     0.12       0 
C5       C      0.57479    0.42521    0.1727     0 
C6       C      0.58411    0.41589    0.1937     0 
C7       C      0.59152    0.40848    0.2104     0 
C8       C      0.6009     0.3991     0.2316     0 
C11      C      0.61712    0.38288    0.2709     0 
C12      C      0.627      0.373      0.2904     0 
C13      C      0.6356     0.3644     0.3077     0 
C14      C      0.6452     0.3548     0.3266     0 
C15      C      0.664      0.336      0.3641     0 
H5       H      0.6704     0.3296     0.3767     0 
C3       C      0.94024    0.05976    0.133      0 
H1       H      0.9462     0.0538     0.12       0 
C5       C      0.92521    0.07479    0.1727     0 
C6       C      0.91589    0.08411    0.1937     0 
C7       C      0.90848    0.09152    0.2104     0 
C8       C      0.8991     0.1009     0.2316     0 
C11      C      0.88288    0.11712    0.2709     0 
C12      C      0.873      0.127      0.2904     0 
C13      C      0.8644     0.1356     0.3077     0 
C14      C      0.8548     0.1452     0.3266     0 
C15      C      0.836      0.164      0.3641     0 
H5       H      0.8296     0.1704     0.3767     0 
C3       C      0.94024    0.55976    0.633      0 
H1       H      0.9462     0.5538     0.62       0 
C5       C      0.92521    0.57479    0.6727     0 
C6       C      0.91589    0.58411    0.6937     0 
C7       C      0.90848    0.59152    0.7104     0 
C8       C      0.8991     0.6009     0.7316     0 
C11      C      0.88288    0.61712    0.7709     0 
C12      C      0.873      0.627      0.7904     0 
C13      C      0.8644     0.6356     0.8077     0 
C14      C      0.8548     0.6452     0.8266     0 
C15      C      0.836      0.664      0.8641     0 
H5       H      0.8296     0.6704     0.8767     0 
C3       C      0.44024    0.05976    0.633      0 
H1       H      0.4462     0.0538     0.62       0 
C5       C      0.42521    0.07479    0.6727     0 
C6       C      0.41589    0.08411    0.6937     0 
C7       C      0.40848    0.09152    0.7104     0 
C8       C      0.3991     0.1009     0.7316     0 
C11      C      0.38288    0.11712    0.7709     0 
C12      C      0.373      0.127      0.7904     0 
C13      C      0.3644     0.1356     0.8077     0 
C14      C      0.3548     0.1452     0.8266     0 
C15      C      0.336      0.164      0.8641     0 
H5       H      0.3296     0.1704     0.8767     0 
C3       C      0.44024    0.55976    0.133      0 
H1       H      0.4462     0.5538     0.12       0 
C5       C      0.42521    0.57479    0.1727     0 
C6       C      0.41589    0.58411    0.1937     0 
C7       C      0.40848    0.59152    0.2104     0 
C8       C      0.3991     0.6009     0.2316     0 
C11      C      0.38288    0.61712    0.2709     0 
C12      C      0.373      0.627      0.2904     0 
C13      C      0.3644     0.6356     0.3077     0 
C14      C      0.3548     0.6452     0.3266     0 
C15      C      0.336      0.664      0.3641     0 
H5       H      0.3296     0.6704     0.3767     0 
C3       C      0.05976    0.133      0.94024    0 
H1       H      0.0538     0.12       0.9462     0 
C5       C      0.07479    0.1727     0.92521    0 
C6       C      0.08411    0.1937     0.91589    0 
C7       C      0.09152    0.2104     0.90848    0 
C8       C      0.1009     0.2316     0.8991     0 
C11      C      0.11712    0.2709     0.88288    0 
C12      C      0.127      0.2904     0.873      0 
C13      C      0.1356     0.3077     0.8644     0 
C14      C      0.1452     0.3266     0.8548     0 
C15      C      0.164      0.3641     0.836      0 
H5       H      0.1704     0.3767     0.8296     0 
C3       C      0.05976    0.633      0.44024    0 
H1       H      0.0538     0.62       0.4462     0 
C5       C      0.07479    0.6727     0.42521    0 
C6       C      0.08411    0.6937     0.41589    0 
C7       C      0.09152    0.7104     0.40848    0 
C8       C      0.1009     0.7316     0.3991     0 
C11      C      0.11712    0.7709     0.38288    0 
C12      C      0.127      0.7904     0.373      0 
C13      C      0.1356     0.8077     0.3644     0 
C14      C      0.1452     0.8266     0.3548     0 
C15      C      0.164      0.8641     0.336      0 
H5       H      0.1704     0.8767     0.3296     0 
C3       C      0.55976    0.133      0.44024    0 
H1       H      0.5538     0.12       0.4462     0 
C5       C      0.57479    0.1727     0.42521    0 
C6       C      0.58411    0.1937     0.41589    0 
C7       C      0.59152    0.2104     0.40848    0 
C8       C      0.6009     0.2316     0.3991     0 
C11      C      0.61712    0.2709     0.38288    0 
C12      C      0.627      0.2904     0.373      0 
C13      C      0.6356     0.3077     0.3644     0 
C14      C      0.6452     0.3266     0.3548     0 
C15      C      0.664      0.3641     0.336      0 
H5       H      0.6704     0.3767     0.3296     0 
C3       C      0.55976    0.633      0.94024    0 
H1       H      0.5538     0.62       0.9462     0 
C5       C      0.57479    0.6727     0.92521    0 
C6       C      0.58411    0.6937     0.91589    0 
C7       C      0.59152    0.7104     0.90848    0 
C8       C      0.6009     0.7316     0.8991     0 
C11      C      0.61712    0.7709     0.88288    0 
C12      C      0.627      0.7904     0.873      0 
C13      C      0.6356     0.8077     0.8644     0 
C14      C      0.6452     0.8266     0.8548     0 
C15      C      0.664      0.8641     0.836      0 
H5       H      0.6704     0.8767     0.8296     0 
C3       C      0.94024    0.133      0.05976    0 
H1       H      0.9462     0.12       0.0538     0 
C5       C      0.92521    0.1727     0.07479    0 
C6       C      0.91589    0.1937     0.08411    0 
C7       C      0.90848    0.2104     0.09152    0 
C8       C      0.8991     0.2316     0.1009     0 
C11      C      0.88288    0.2709     0.11712    0 
C12      C      0.873      0.2904     0.127      0 
C13      C      0.8644     0.3077     0.1356     0 
C14      C      0.8548     0.3266     0.1452     0 
C15      C      0.836      0.3641     0.164      0 
H5       H      0.8296     0.3767     0.1704     0 
C3       C      0.94024    0.633      0.55976    0 
H1       H      0.9462     0.62       0.5538     0 
C5       C      0.92521    0.6727     0.57479    0 
C6       C      0.91589    0.6937     0.58411    0 
C7       C      0.90848    0.7104     0.59152    0 
C8       C      0.8991     0.7316     0.6009     0 
C11      C      0.88288    0.7709     0.61712    0 
C12      C      0.873      0.7904     0.627      0 
C13      C      0.8644     0.8077     0.6356     0 
C14      C      0.8548     0.8266     0.6452     0 
C15      C      0.836      0.8641     0.664      0 
H5       H      0.8296     0.8767     0.6704     0 
C3       C      0.44024    0.133      0.55976    0 
H1       H      0.4462     0.12       0.5538     0 
C5       C      0.42521    0.1727     0.57479    0 
C6       C      0.41589    0.1937     0.58411    0 
C7       C      0.40848    0.2104     0.59152    0 
C8       C      0.3991     0.2316     0.6009     0 
C11      C      0.38288    0.2709     0.61712    0 
C12      C      0.373      0.2904     0.627      0 
C13      C      0.3644     0.3077     0.6356     0 
C14      C      0.3548     0.3266     0.6452     0 
C15      C      0.336      0.3641     0.664      0 
H5       H      0.3296     0.3767     0.6704     0 
C3       C      0.44024    0.633      0.05976    0 
H1       H      0.4462     0.62       0.0538     0 
C5       C      0.42521    0.6727     0.07479    0 
C6       C      0.41589    0.6937     0.08411    0 
C7       C      0.40848    0.7104     0.09152    0 
C8       C      0.3991     0.7316     0.1009     0 
C11      C      0.38288    0.7709     0.11712    0 
C12      C      0.373      0.7904     0.127      0 
C13      C      0.3644     0.8077     0.1356     0 
C14      C      0.3548     0.8266     0.1452     0 
C15      C      0.336      0.8641     0.164      0 
H5       H      0.3296     0.8767     0.1704     0 
C3       C      0.94024    0.867      0.94024    0 
H1       H      0.9462     0.88       0.9462     0 
C5       C      0.92521    0.8273     0.92521    0 
C6       C      0.91589    0.8063     0.91589    0 
C7       C      0.90848    0.7896     0.90848    0 
C8       C      0.8991     0.7684     0.8991     0 
C11      C      0.88288    0.7291     0.88288    0 
C12      C      0.873      0.7096     0.873      0 
C13      C      0.8644     0.6923     0.8644     0 
C14      C      0.8548     0.6734     0.8548     0 
C15      C      0.836      0.6359     0.836      0 
H5       H      0.8296     0.6233     0.8296     0 
C3       C      0.94024    0.367      0.44024    0 
H1       H      0.9462     0.38       0.4462     0 
C5       C      0.92521    0.3273     0.42521    0 
C6       C      0.91589    0.3063     0.41589    0 
C7       C      0.90848    0.2896     0.40848    0 
C8       C      0.8991     0.2684     0.3991     0 
C11      C      0.88288    0.2291     0.38288    0 
C12      C      0.873      0.2096     0.373      0 
C13      C      0.8644     0.1923     0.3644     0 
C14      C      0.8548     0.1734     0.3548     0 
C15      C      0.836      0.1359     0.336      0 
H5       H      0.8296     0.1233     0.3296     0 
C3       C      0.44024    0.867      0.44024    0 
H1       H      0.4462     0.88       0.4462     0 
C5       C      0.42521    0.8273     0.42521    0 
C6       C      0.41589    0.8063     0.41589    0 
C7       C      0.40848    0.7896     0.40848    0 
C8       C      0.3991     0.7684     0.3991     0 
C11      C      0.38288    0.7291     0.38288    0 
C12      C      0.373      0.7096     0.373      0 
C13      C      0.3644     0.6923     0.3644     0 
C14      C      0.3548     0.6734     0.3548     0 
C15      C      0.336      0.6359     0.336      0 
H5       H      0.3296     0.6233     0.3296     0 
C3       C      0.44024    0.367      0.94024    0 
H1       H      0.4462     0.38       0.9462     0 
C5       C      0.42521    0.3273     0.92521    0 
C6       C      0.41589    0.3063     0.91589    0 
C7       C      0.40848    0.2896     0.90848    0 
C8       C      0.3991     0.2684     0.8991     0 
C11      C      0.38288    0.2291     0.88288    0 
C12      C      0.373      0.2096     0.873      0 
C13      C      0.3644     0.1923     0.8644     0 
C14      C      0.3548     0.1734     0.8548     0 
C15      C      0.336      0.1359     0.836      0 
H5       H      0.3296     0.1233     0.8296     0 
C3       C      0.05976    0.867      0.05976    0 
H1       H      0.0538     0.88       0.0538     0 
C5       C      0.07479    0.8273     0.07479    0 
C6       C      0.08411    0.8063     0.08411    0 
C7       C      0.09152    0.7896     0.09152    0 
C8       C      0.1009     0.7684     0.1009     0 
C11      C      0.11712    0.7291     0.11712    0 
C12      C      0.127      0.7096     0.127      0 
C13      C      0.1356     0.6923     0.1356     0 
C14      C      0.1452     0.6734     0.1452     0 
C15      C      0.164      0.6359     0.164      0 
H5       H      0.1704     0.6233     0.1704     0 
C3       C      0.05976    0.367      0.55976    0 
H1       H      0.0538     0.38       0.5538     0 
C5       C      0.07479    0.3273     0.57479    0 
C6       C      0.08411    0.3063     0.58411    0 
C7       C      0.09152    0.2896     0.59152    0 
C8       C      0.1009     0.2684     0.6009     0 
C11      C      0.11712    0.2291     0.61712    0 
C12      C      0.127      0.2096     0.627      0 
C13      C      0.1356     0.1923     0.6356     0 
C14      C      0.1452     0.1734     0.6452     0 
C15      C      0.164      0.1359     0.664      0 
H5       H      0.1704     0.1233     0.6704     0 
C3       C      0.55976    0.867      0.55976    0 
H1       H      0.5538     0.88       0.5538     0 
C5       C      0.57479    0.8273     0.57479    0 
C6       C      0.58411    0.8063     0.58411    0 
C7       C      0.59152    0.7896     0.59152    0 
C8       C      0.6009     0.7684     0.6009     0 
C11      C      0.61712    0.7291     0.61712    0 
C12      C      0.627      0.7096     0.627      0 
C13      C      0.6356     0.6923     0.6356     0 
C14      C      0.6452     0.6734     0.6452     0 
C15      C      0.664      0.6359     0.664      0 
H5       H      0.6704     0.6233     0.6704     0 
C3       C      0.55976    0.367      0.05976    0 
H1       H      0.5538     0.38       0.0538     0 
C5       C      0.57479    0.3273     0.07479    0 
C6       C      0.58411    0.3063     0.08411    0 
C7       C      0.59152    0.2896     0.09152    0 
C8       C      0.6009     0.2684     0.1009     0 
C11      C      0.61712    0.2291     0.11712    0 
C12      C      0.627      0.2096     0.127      0 
C13      C      0.6356     0.1923     0.1356     0 
C14      C      0.6452     0.1734     0.1452     0 
C15      C      0.664      0.1359     0.164      0 
H5       H      0.6704     0.1233     0.1704     0 
C3       C      0.133      0.05976    0.94024    0 
H1       H      0.12       0.0538     0.9462     0 
C5       C      0.1727     0.07479    0.92521    0 
C6       C      0.1937     0.08411    0.91589    0 
C7       C      0.2104     0.09152    0.90848    0 
C8       C      0.2316     0.1009     0.8991     0 
C11      C      0.2709     0.11712    0.88288    0 
C12      C      0.2904     0.127      0.873      0 
C13      C      0.3077     0.1356     0.8644     0 
C14      C      0.3266     0.1452     0.8548     0 
C15      C      0.3641     0.164      0.836      0 
H5       H      0.3767     0.1704     0.8296     0 
C3       C      0.133      0.55976    0.44024    0 
H1       H      0.12       0.5538     0.4462     0 
C5       C      0.1727     0.57479    0.42521    0 
C6       C      0.1937     0.58411    0.41589    0 
C7       C      0.2104     0.59152    0.40848    0 
C8       C      0.2316     0.6009     0.3991     0 
C11      C      0.2709     0.61712    0.38288    0 
C12      C      0.2904     0.627      0.373      0 
C13      C      0.3077     0.6356     0.3644     0 
C14      C      0.3266     0.6452     0.3548     0 
C15      C      0.3641     0.664      0.336      0 
H5       H      0.3767     0.6704     0.3296     0 
C3       C      0.633      0.05976    0.44024    0 
H1       H      0.62       0.0538     0.4462     0 
C5       C      0.6727     0.07479    0.42521    0 
C6       C      0.6937     0.08411    0.41589    0 
C7       C      0.7104     0.09152    0.40848    0 
C8       C      0.7316     0.1009     0.3991     0 
C11      C      0.7709     0.11712    0.38288    0 
C12      C      0.7904     0.127      0.373      0 
C13      C      0.8077     0.1356     0.3644     0 
C14      C      0.8266     0.1452     0.3548     0 
C15      C      0.8641     0.164      0.336      0 
H5       H      0.8767     0.1704     0.3296     0 
C3       C      0.633      0.55976    0.94024    0 
H1       H      0.62       0.5538     0.9462     0 
C5       C      0.6727     0.57479    0.92521    0 
C6       C      0.6937     0.58411    0.91589    0 
C7       C      0.7104     0.59152    0.90848    0 
C8       C      0.7316     0.6009     0.8991     0 
C11      C      0.7709     0.61712    0.88288    0 
C12      C      0.7904     0.627      0.873      0 
C13      C      0.8077     0.6356     0.8644     0 
C14      C      0.8266     0.6452     0.8548     0 
C15      C      0.8641     0.664      0.836      0 
H5       H      0.8767     0.6704     0.8296     0 
C3       C      0.133      0.94024    0.05976    0 
H1       H      0.12       0.9462     0.0538     0 
C5       C      0.1727     0.92521    0.07479    0 
C6       C      0.1937     0.91589    0.08411    0 
C7       C      0.2104     0.90848    0.09152    0 
C8       C      0.2316     0.8991     0.1009     0 
C11      C      0.2709     0.88288    0.11712    0 
C12      C      0.2904     0.873      0.127      0 
C13      C      0.3077     0.8644     0.1356     0 
C14      C      0.3266     0.8548     0.1452     0 
C15      C      0.3641     0.836      0.164      0 
H5       H      0.3767     0.8296     0.1704     0 
C3       C      0.133      0.44024    0.55976    0 
H1       H      0.12       0.4462     0.5538     0 
C5       C      0.1727     0.42521    0.57479    0 
C6       C      0.1937     0.41589    0.58411    0 
C7       C      0.2104     0.40848    0.59152    0 
C8       C      0.2316     0.3991     0.6009     0 
C11      C      0.2709     0.38288    0.61712    0 
C12      C      0.2904     0.373      0.627      0 
C13      C      0.3077     0.3644     0.6356     0 
C14      C      0.3266     0.3548     0.6452     0 
C15      C      0.3641     0.336      0.664      0 
H5       H      0.3767     0.3296     0.6704     0 
C3       C      0.633      0.94024    0.55976    0 
H1       H      0.62       0.9462     0.5538     0 
C5       C      0.6727     0.92521    0.57479    0 
C6       C      0.6937     0.91589    0.58411    0 
C7       C      0.7104     0.90848    0.59152    0 
C8       C      0.7316     0.8991     0.6009     0 
C11      C      0.7709     0.88288    0.61712    0 
C12      C      0.7904     0.873      0.627      0 
C13      C      0.8077     0.8644     0.6356     0 
C14      C      0.8266     0.8548     0.6452     0 
C15      C      0.8641     0.836      0.664      0 
H5       H      0.8767     0.8296     0.6704     0 
C3       C      0.633      0.44024    0.05976    0 
H1       H      0.62       0.4462     0.0538     0 
C5       C      0.6727     0.42521    0.07479    0 
C6       C      0.6937     0.41589    0.08411    0 
C7       C      0.7104     0.40848    0.09152    0 
C8       C      0.7316     0.3991     0.1009     0 
C11      C      0.7709     0.38288    0.11712    0 
C12      C      0.7904     0.373      0.127      0 
C13      C      0.8077     0.3644     0.1356     0 
C14      C      0.8266     0.3548     0.1452     0 
C15      C      0.8641     0.336      0.164      0 
H5       H      0.8767     0.3296     0.1704     0 
C3       C      0.867      0.05976    0.05976    0 
H1       H      0.88       0.0538     0.0538     0 
C5       C      0.8273     0.07479    0.07479    0 
C6       C      0.8063     0.08411    0.08411    0 
C7       C      0.7896     0.09152    0.09152    0 
C8       C      0.7684     0.1009     0.1009     0 
C11      C      0.7291     0.11712    0.11712    0 
C12      C      0.7096     0.127      0.127      0 
C13      C      0.6923     0.1356     0.1356     0 
C14      C      0.6734     0.1452     0.1452     0 
C15      C      0.6359     0.164      0.164      0 
H5       H      0.6233     0.1704     0.1704     0 
C3       C      0.867      0.55976    0.55976    0 
H1       H      0.88       0.5538     0.5538     0 
C5       C      0.8273     0.57479    0.57479    0 
C6       C      0.8063     0.58411    0.58411    0 
C7       C      0.7896     0.59152    0.59152    0 
C8       C      0.7684     0.6009     0.6009     0 
C11      C      0.7291     0.61712    0.61712    0 
C12      C      0.7096     0.627      0.627      0 
C13      C      0.6923     0.6356     0.6356     0 
C14      C      0.6734     0.6452     0.6452     0 
C15      C      0.6359     0.664      0.664      0 
H5       H      0.6233     0.6704     0.6704     0 
C3       C      0.367      0.05976    0.55976    0 
H1       H      0.38       0.0538     0.5538     0 
C5       C      0.3273     0.07479    0.57479    0 
C6       C      0.3063     0.08411    0.58411    0 
C7       C      0.2896     0.09152    0.59152    0 
C8       C      0.2684     0.1009     0.6009     0 
C11      C      0.2291     0.11712    0.61712    0 
C12      C      0.2096     0.127      0.627      0 
C13      C      0.1923     0.1356     0.6356     0 
C14      C      0.1734     0.1452     0.6452     0 
C15      C      0.1359     0.164      0.664      0 
H5       H      0.1233     0.1704     0.6704     0 
C3       C      0.367      0.55976    0.05976    0 
H1       H      0.38       0.5538     0.0538     0 
C5       C      0.3273     0.57479    0.07479    0 
C6       C      0.3063     0.58411    0.08411    0 
C7       C      0.2896     0.59152    0.09152    0 
C8       C      0.2684     0.6009     0.1009     0 
C11      C      0.2291     0.61712    0.11712    0 
C12      C      0.2096     0.627      0.127      0 
C13      C      0.1923     0.6356     0.1356     0 
C14      C      0.1734     0.6452     0.1452     0 
C15      C      0.1359     0.664      0.164      0 
H5       H      0.1233     0.6704     0.1704     0 
C3       C      0.867      0.94024    0.94024    0 
H1       H      0.88       0.9462     0.9462     0 
C5       C      0.8273     0.92521    0.92521    0 
C6       C      0.8063     0.91589    0.91589    0 
C7       C      0.7896     0.90848    0.90848    0 
C8       C      0.7684     0.8991     0.8991     0 
C11      C      0.7291     0.88288    0.88288    0 
C12      C      0.7096     0.873      0.873      0 
C13      C      0.6923     0.8644     0.8644     0 
C14      C      0.6734     0.8548     0.8548     0 
C15      C      0.6359     0.836      0.836      0 
H5       H      0.6233     0.8296     0.8296     0 
C3       C      0.867      0.44024    0.44024    0 
H1       H      0.88       0.4462     0.4462     0 
C5       C      0.8273     0.42521    0.42521    0 
C6       C      0.8063     0.41589    0.41589    0 
C7       C      0.7896     0.40848    0.40848    0 
C8       C      0.7684     0.3991     0.3991     0 
C11      C      0.7291     0.38288    0.38288    0 
C12      C      0.7096     0.373      0.373      0 
C13      C      0.6923     0.3644     0.3644     0 
C14      C      0.6734     0.3548     0.3548     0 
C15      C      0.6359     0.336      0.336      0 
H5       H      0.6233     0.3296     0.3296     0 
C3       C      0.367      0.94024    0.44024    0 
H1       H      0.38       0.9462     0.4462     0 
C5       C      0.3273     0.92521    0.42521    0 
C6       C      0.3063     0.91589    0.41589    0 
C7       C      0.2896     0.90848    0.40848    0 
C8       C      0.2684     0.8991     0.3991     0 
C11      C      0.2291     0.88288    0.38288    0 
C12      C      0.2096     0.873      0.373      0 
C13      C      0.1923     0.8644     0.3644     0 
C14      C      0.1734     0.8548     0.3548     0 
C15      C      0.1359     0.836      0.336      0 
H5       H      0.1233     0.8296     0.3296     0 
C3       C      0.367      0.44024    0.94024    0 
H1       H      0.38       0.4462     0.9462     0 
C5       C      0.3273     0.42521    0.92521    0 
C6       C      0.3063     0.41589    0.91589    0 
C7       C      0.2896     0.40848    0.90848    0 
C8       C      0.2684     0.3991     0.8991     0 
C11      C      0.2291     0.38288    0.88288    0 
C12      C      0.2096     0.373      0.873      0 
C13      C      0.1923     0.3644     0.8644     0 
C14      C      0.1734     0.3548     0.8548     0 
C15      C      0.1359     0.336      0.836      0 
H5       H      0.1233     0.3296     0.8296     0 


