data_NU-108-Zn

_audit_creation_method RASPA-1.0
_audit_creation_date 2012-1-24
_audit_author_name 'Ozgur Yazaydin'

_cell_length_a    24.527
_cell_length_b    24.527
_cell_length_c    71.355
_cell_angle_alpha 90
_cell_angle_beta  90
_cell_angle_gamma 120
_cell_volume      37174.4

_symmetry_cell_setting          triclinic
_symmetry_space_group_name_Hall 'P 1'
_symmetry_space_group_name_H-M  'P 1'
_symmetry_Int_Tables_number     1

_symmetry_equiv_pos_as_xyz 'x,y,z'

loop_
_atom_site_label
_atom_site_type_symbol
_atom_site_fract_x
_atom_site_fract_y
_atom_site_fract_z
_atom_site_charge
Zn1      Zn    0.08004      0.0674       0.01025      0
Zn2      Zn    0.41337      0.73407      0.34359      0
Zn3      Zn    0.74671      0.40073      0.67692      0
O4       O     0.8717       0.9389       0.0248       0
O5       O     0.20503      0.60557      0.35813      0
O6       O     0.53837      0.27223      0.69147      0
O7       O     0.9118       0.8767       0.02406      0
O8       O     0.24513      0.54337      0.35739      0
O9       O     0.57847      0.21003      0.69073      0
C10      C     0.8708       0.8902       0.02796      0
C11      C     0.20413      0.55687      0.36129      0
C12      C     0.53747      0.22353      0.69463      0
C13      C     0.81862      0.845        0.03935      0
C14      C     0.15195      0.51167      0.37268      0
C15      C     0.48529      0.17833      0.70602      0
C16      C     0.7744       0.862        0.04797      0
C17      C     0.10773      0.52867      0.3813       0
C18      C     0.44107      0.19533      0.71464      0
H19      H     0.7796       0.9025       0.0466       0
H20      H     0.11293      0.56917      0.37993      0
H21      H     0.44627      0.23583      0.71327      0
C22      C     0.7229       0.814        0.0586       0
C23      C     0.05623      0.48067      0.39193      0
C24      C     0.38957      0.14733      0.72527      0
H25      H     0.6931       0.8231       0.0637       0
H26      H     0.02643      0.48977      0.39703      0
H27      H     0.35977      0.15643      0.73037      0
C28      C     0.7157       0.7578       0.06137      0
C29      C     0.04903      0.42447      0.3947       0
C30      C     0.38237      0.09113      0.72804      0
C31      C     0.7539       0.7425       0.0536       0
C32      C     0.08723      0.40917      0.38693      0
C33      C     0.42057      0.07583      0.72027      0
H34      H     0.7466       0.7015       0.0554       0
H35      H     0.07993      0.36817      0.38873      0
H36      H     0.41327      0.03483      0.72207      0
C37      C     0.8055       0.7838       0.04256      0
C38      C     0.13883      0.45047      0.37589      0
C39      C     0.47217      0.11713      0.70923      0
H40      H     0.8316       0.7699       0.0373       0
H41      H     0.16493      0.43657      0.37063      0
H42      H     0.49827      0.10323      0.70397      0
C43      C     0.66333      0.71086      0.07229      0
C44      C     0.99666      0.37753      0.40562      0
C45      C     0.33         0.04419      0.73896      0
C46      C     0.60594      0.71036      0.07225      0
C47      C     0.93927      0.37703      0.40558      0
C48      C     0.27261      0.04369      0.73892      0
H49      H     0.6014       0.7394       0.0648       0
H50      H     0.93473      0.40607      0.39813      0
H51      H     0.26807      0.07273      0.73147      0
Zn52     Zn    0.9326       0.01264      0.01025      0
Zn53     Zn    0.26593      0.67931      0.34359      0
Zn54     Zn    0.59927      0.34597      0.67692      0
O55      O     0.0611       0.9328       0.0248       0
O56      O     0.39443      0.59947      0.35813      0
O57      O     0.72777      0.26613      0.69147      0
O58      O     0.1233       0.0351       0.02406      0
O59      O     0.45663      0.70177      0.35739      0
O60      O     0.78997      0.36843      0.69073      0
C61      C     0.1098       0.9806       0.02796      0
C62      C     0.44313      0.64727      0.36129      0
C63      C     0.77647      0.31393      0.69463      0
C64      C     0.155        0.97362      0.03935      0
C65      C     0.48833      0.64029      0.37268      0
C66      C     0.82167      0.30695      0.70602      0
C67      C     0.138        0.9124       0.04797      0
C68      C     0.47133      0.57907      0.3813       0
C69      C     0.80467      0.24573      0.71464      0
H70      H     0.0975       0.8771       0.0466       0
H71      H     0.43083      0.54377      0.37993      0
H72      H     0.76417      0.21043      0.71327      0
C73      C     0.186        0.9089       0.0586       0
C74      C     0.51933      0.57557      0.39193      0
C75      C     0.85267      0.24223      0.72527      0
H76      H     0.1769       0.87         0.0637       0
H77      H     0.51023      0.53667      0.39703      0
H78      H     0.84357      0.20333      0.73037      0
C79      C     0.2422       0.9579       0.06137      0
C80      C     0.57553      0.62457      0.3947       0
C81      C     0.90887      0.29123      0.72804      0
C82      C     0.2575       0.0114       0.0536       0
C83      C     0.59083      0.67807      0.38693      0
C84      C     0.92417      0.34473      0.72027      0
H85      H     0.2985       0.0451       0.0554       0
H86      H     0.63183      0.71177      0.38873      0
H87      H     0.96517      0.37843      0.72207      0
C88      C     0.2162       0.0217       0.04256      0
C89      C     0.54953      0.68837      0.37589      0
C90      C     0.88287      0.35503      0.70923      0
H91      H     0.2301       0.0617       0.0373       0
H92      H     0.56343      0.72837      0.37063      0
H93      H     0.89677      0.39503      0.70397      0
C94      C     0.28914      0.95247      0.07229      0
C95      C     0.62247      0.61914      0.40562      0
C96      C     0.95581      0.2858       0.73896      0
C97      C     0.28964      0.89558      0.07225      0
C98      C     0.62297      0.56225      0.40558      0
C99      C     0.95631      0.22891      0.73892      0
H100     H     0.2606       0.862        0.0648       0
H101     H     0.59393      0.52867      0.39813      0
H102     H     0.92727      0.19533      0.73147      0
Zn103    Zn    0.98736      0.91996      0.01025      0
Zn104    Zn    0.32069      0.58663      0.34359      0
Zn105    Zn    0.65403      0.25329      0.67692      0
O106     O     0.0672       0.1283       0.0248       0
O107     O     0.40053      0.79497      0.35813      0
O108     O     0.73387      0.46163      0.69147      0
O109     O     0.9649       0.0882       0.02406      0
O110     O     0.29823      0.75487      0.35739      0
O111     O     0.63157      0.42153      0.69073      0
C112     C     0.0194       0.1292       0.02796      0
C113     C     0.35273      0.79587      0.36129      0
C114     C     0.68607      0.46253      0.69463      0
C115     C     0.02638      0.18138      0.03935      0
C116     C     0.35971      0.84805      0.37268      0
C117     C     0.69305      0.51471      0.70602      0
C118     C     0.0421       0.2843       0.06137      0
C119     C     0.37543      0.95097      0.3947       0
C120     C     0.70877      0.61763      0.72804      0
C121     C     0.0056       0.1708       0.05681      0
C122     C     0.33893      0.83747      0.39014      0
C123     C     0.67227      0.50413      0.72348      0
H124     H     0.9862       0.1295       0.0615       0
H125     H     0.31953      0.79617      0.39483      0
H126     H     0.65287      0.46283      0.72817      0
C127     C     0.0119       0.22         0.06863      0
C128     C     0.34523      0.88667      0.40196      0
C129     C     0.67857      0.55333      0.7353       0
H130     H     0.9968       0.2114       0.081        0
H131     H     0.33013      0.87807      0.41433      0
H132     H     0.66347      0.54473      0.74767      0
C133     C     0.0611       0.2893       0.04389      0
C134     C     0.39443      0.95597      0.37722      0
C135     C     0.72777      0.62263      0.71056      0
H136     H     0.0825       0.33         0.0387       0
H137     H     0.41583      0.99667      0.37203      0
H138     H     0.74917      0.66333      0.70537      0
C139     C     0.0521       0.2387       0.03223      0
C140     C     0.38543      0.90537      0.36556      0
C141     C     0.71877      0.57203      0.6989       0
H142     H     0.0643       0.2458       0.0196       0
H143     H     0.39763      0.91247      0.35293      0
H144     H     0.73097      0.57913      0.68627      0
C145     C     0.04753      0.33667      0.07229      0
C146     C     0.38086      0.00334      0.40562      0
C147     C     0.7142       0.67         0.73896      0
C148     C     0.10442      0.39406      0.07225      0
C149     C     0.43775      0.06073      0.40558      0
C150     C     0.77109      0.72739      0.73892      0
H151     H     0.138        0.3986       0.0648       0
H152     H     0.47133      0.06527      0.39813      0
H153     H     0.80467      0.73193      0.73147      0
Zn154    Zn    0.67931      0.26593      0.15641      0
Zn155    Zn    0.01264      0.9326       0.48975      0
Zn156    Zn    0.34597      0.59927      0.82308      0
O157     O     0.59947      0.39443      0.14187      0
O158     O     0.9328       0.0611       0.4752       0
O159     O     0.26613      0.72777      0.80853      0
O160     O     0.70177      0.45663      0.14261      0
O161     O     0.0351       0.1233       0.47594      0
O162     O     0.36843      0.78997      0.80927      0
C163     C     0.64727      0.44313      0.13871      0
C164     C     0.9806       0.1098       0.47204      0
C165     C     0.31393      0.77647      0.80537      0
C166     C     0.64029      0.48833      0.12732      0
C167     C     0.97362      0.155        0.46065      0
C168     C     0.30695      0.82167      0.79398      0
C169     C     0.62457      0.57553      0.1053       0
C170     C     0.9579       0.2422       0.43863      0
C171     C     0.29123      0.90887      0.77196      0
C172     C     0.66107      0.49853      0.10986      0
C173     C     0.9944       0.1652       0.44319      0
C174     C     0.32773      0.83187      0.77652      0
H175     H     0.68047      0.47663      0.10517      0
H176     H     0.0138       0.1433       0.4385       0
H177     H     0.34713      0.80997      0.77183      0
C178     C     0.65477      0.54143      0.09804      0
C179     C     0.9881       0.2081       0.43137      0
C180     C     0.32143      0.87477      0.7647       0
H181     H     0.66987      0.54793      0.08567      0
H182     H     0.0032       0.2146       0.419        0
H183     H     0.33653      0.88127      0.75233      0
C184     C     0.60557      0.56153      0.12278      0
C185     C     0.9389       0.2282       0.45611      0
C186     C     0.27223      0.89487      0.78944      0
H187     H     0.58417      0.58083      0.12797      0
H188     H     0.9175       0.2475       0.4613       0
H189     H     0.25083      0.91417      0.79463      0
C190     C     0.61457      0.51993      0.13444      0
C191     C     0.9479       0.1866       0.46777      0
C192     C     0.28123      0.85327      0.8011       0
H193     H     0.60237      0.51483      0.14707      0
H194     H     0.9357       0.1815       0.4804       0
H195     H     0.26903      0.84817      0.81373      0
C196     C     0.61914      0.62247      0.09438      0
C197     C     0.95247      0.28914      0.42771      0
C198     C     0.2858       0.95581      0.76104      0
C199     C     0.56225      0.62297      0.09442      0
C200     C     0.89558      0.28964      0.42775      0
C201     C     0.22891      0.95631      0.76108      0
H202     H     0.52867      0.59393      0.10187      0
H203     H     0.862        0.2606       0.4352       0
H204     H     0.19533      0.92727      0.76853      0
Zn205    Zn    0.58663      0.32069      0.15641      0
Zn206    Zn    0.91996      0.98736      0.48975      0
Zn207    Zn    0.25329      0.65403      0.82308      0
O208     O     0.79497      0.40053      0.14187      0
O209     O     0.1283       0.0672       0.4752       0
O210     O     0.46163      0.73387      0.80853      0
O211     O     0.75487      0.29823      0.14261      0
O212     O     0.0882       0.9649       0.47594      0
O213     O     0.42153      0.63157      0.80927      0
C214     C     0.79587      0.35273      0.13871      0
C215     C     0.1292       0.0194       0.47204      0
C216     C     0.46253      0.68607      0.80537      0
C217     C     0.84805      0.35971      0.12732      0
C218     C     0.18138      0.02638      0.46065      0
C219     C     0.51471      0.69305      0.79398      0
C220     C     0.95097      0.37543      0.1053       0
C221     C     0.2843       0.0421       0.43863      0
C222     C     0.61763      0.70877      0.77196      0
C223     C     0.83747      0.33893      0.10986      0
C224     C     0.1708       0.0056       0.44319      0
C225     C     0.50413      0.67227      0.77652      0
H226     H     0.79617      0.31953      0.10517      0
H227     H     0.1295       0.9862       0.4385       0
H228     H     0.46283      0.65287      0.77183      0
C229     C     0.88667      0.34523      0.09804      0
C230     C     0.22         0.0119       0.43137      0
C231     C     0.55333      0.67857      0.7647       0
H232     H     0.87807      0.33013      0.08567      0
H233     H     0.2114       0.9968       0.419        0
H234     H     0.54473      0.66347      0.75233      0
C235     C     0.95597      0.39443      0.12278      0
C236     C     0.2893       0.0611       0.45611      0
C237     C     0.62263      0.72777      0.78944      0
H238     H     0.99667      0.41583      0.12797      0
H239     H     0.33         0.0825       0.4613       0
H240     H     0.66333      0.74917      0.79463      0
C241     C     0.90537      0.38543      0.13444      0
C242     C     0.2387       0.0521       0.46777      0
C243     C     0.57203      0.71877      0.8011       0
H244     H     0.91247      0.39763      0.14707      0
H245     H     0.2458       0.0643       0.4804       0
H246     H     0.57913      0.73097      0.81373      0
C247     C     0.00334      0.38086      0.09438      0
C248     C     0.33667      0.04753      0.42771      0
C249     C     0.67         0.7142       0.76104      0
C250     C     0.06073      0.43775      0.09442      0
C251     C     0.39406      0.10442      0.42775      0
C252     C     0.72739      0.77109      0.76108      0
H253     H     0.06527      0.47133      0.10187      0
H254     H     0.3986       0.138        0.4352       0
H255     H     0.73193      0.80467      0.76853      0
Zn256    Zn    0.73407      0.41337      0.15641      0
Zn257    Zn    0.0674       0.08004      0.48975      0
Zn258    Zn    0.40073      0.74671      0.82308      0
O259     O     0.60557      0.20503      0.14187      0
O260     O     0.9389       0.8717       0.4752       0
O261     O     0.27223      0.53837      0.80853      0
O262     O     0.54337      0.24513      0.14261      0
O263     O     0.8767       0.9118       0.47594      0
O264     O     0.21003      0.57847      0.80927      0
C265     C     0.55687      0.20413      0.13871      0
C266     C     0.8902       0.8708       0.47204      0
C267     C     0.22353      0.53747      0.80537      0
C268     C     0.51167      0.15195      0.12732      0
C269     C     0.845        0.81862      0.46065      0
C270     C     0.17833      0.48529      0.79398      0
C271     C     0.52867      0.10773      0.1187       0
C272     C     0.862        0.7744       0.45203      0
C273     C     0.19533      0.44107      0.78536      0
H274     H     0.56917      0.11293      0.12007      0
H275     H     0.9025       0.7796       0.4534       0
H276     H     0.23583      0.44627      0.78673      0
C277     C     0.48067      0.05623      0.10807      0
C278     C     0.814        0.7229       0.4414       0
C279     C     0.14733      0.38957      0.77473      0
H280     H     0.48977      0.02643      0.10297      0
H281     H     0.8231       0.6931       0.4363       0
H282     H     0.15643      0.35977      0.76963      0
C283     C     0.42447      0.04903      0.1053       0
C284     C     0.7578       0.7157       0.43863      0
C285     C     0.09113      0.38237      0.77196      0
C286     C     0.40917      0.08723      0.11307      0
C287     C     0.7425       0.7539       0.4464       0
C288     C     0.07583      0.42057      0.77973      0
H289     H     0.36817      0.07993      0.11127      0
H290     H     0.7015       0.7466       0.4446       0
H291     H     0.03483      0.41327      0.77793      0
C292     C     0.45047      0.13883      0.12411      0
C293     C     0.7838       0.8055       0.45744      0
C294     C     0.11713      0.47217      0.79077      0
H295     H     0.43657      0.16493      0.12937      0
H296     H     0.7699       0.8316       0.4627       0
H297     H     0.10323      0.49827      0.79603      0
C298     C     0.37753      0.99666      0.09438      0
C299     C     0.71086      0.66333      0.42771      0
C300     C     0.04419      0.33         0.76104      0
C301     C     0.37703      0.93927      0.09442      0
C302     C     0.71036      0.60594      0.42775      0
C303     C     0.04369      0.27261      0.76108      0
H304     H     0.40607      0.93473      0.10187      0
H305     H     0.7394       0.6014       0.4352       0
H306     H     0.07273      0.26807      0.76853      0
O307     O     0.41053      0.73947      0.29728      0
O308     O     0.74387      0.40613      0.63062      0
O309     O     0.0772       0.0728       0.96395      0
O310     O     0.46913      0.77687      0.32308      0
O311     O     0.80247      0.44353      0.65642      0
O312     O     0.1358       0.1102       0.98975      0
C313     C     0.46253      0.77647      0.30537      0
C314     C     0.79587      0.44313      0.63871      0
C315     C     0.1292       0.1098       0.97204      0
C316     C     0.51471      0.82167      0.29398      0
C317     C     0.84805      0.48833      0.62732      0
C318     C     0.18138      0.155        0.96065      0
C319     C     0.61763      0.90887      0.27196      0
C320     C     0.95097      0.57553      0.6053       0
C321     C     0.2843       0.2422       0.93863      0
C322     C     0.50413      0.83187      0.27652      0
C323     C     0.83747      0.49853      0.60986      0
C324     C     0.1708       0.1652       0.94319      0
H325     H     0.46283      0.80997      0.27183      0
H326     H     0.79617      0.47663      0.60517      0
H327     H     0.1295       0.1433       0.9385       0
C328     C     0.55333      0.87477      0.2647       0
C329     C     0.88667      0.54143      0.59804      0
C330     C     0.22         0.2081       0.93137      0
H331     H     0.54473      0.88127      0.25233      0
H332     H     0.87807      0.54793      0.58567      0
H333     H     0.2114       0.2146       0.919        0
C334     C     0.62263      0.89487      0.28944      0
C335     C     0.95597      0.56153      0.62278      0
C336     C     0.2893       0.2282       0.95611      0
H337     H     0.66333      0.91417      0.29463      0
H338     H     0.99667      0.58083      0.62797      0
H339     H     0.33         0.2475       0.9613       0
C340     C     0.57203      0.85327      0.3011       0
C341     C     0.90537      0.51993      0.63444      0
C342     C     0.2387       0.1866       0.96777      0
H343     H     0.57913      0.84817      0.31373      0
H344     H     0.91247      0.51483      0.64707      0
H345     H     0.2458       0.1815       0.9804       0
C346     C     0.67         0.95581      0.26104      0
C347     C     0.00334      0.62247      0.59438      0
C348     C     0.33667      0.28914      0.92771      0
C349     C     0.72739      0.95631      0.26108      0
C350     C     0.06073      0.62297      0.59442      0
C351     C     0.39406      0.28964      0.92775      0
H352     H     0.73193      0.92727      0.26853      0
H353     H     0.06527      0.59393      0.60187      0
H354     H     0.3986       0.2606       0.9352       0
O355     O     0.26053      0.67107      0.29728      0
O356     O     0.59387      0.33773      0.63062      0
O357     O     0.9272       0.0044       0.96395      0
O358     O     0.22313      0.69227      0.32308      0
O359     O     0.55647      0.35893      0.65642      0
O360     O     0.8898       0.0256       0.98975      0
C361     C     0.22353      0.68607      0.30537      0
C362     C     0.55687      0.35273      0.63871      0
C363     C     0.8902       0.0194       0.97204      0
C364     C     0.17833      0.69305      0.29398      0
C365     C     0.51167      0.35971      0.62732      0
C366     C     0.845        0.02638      0.96065      0
C367     C     0.09113      0.70877      0.27196      0
C368     C     0.42447      0.37543      0.6053       0
C369     C     0.7578       0.0421       0.93863      0
C370     C     0.16813      0.67227      0.27652      0
C371     C     0.50147      0.33893      0.60986      0
C372     C     0.8348       0.0056       0.94319      0
H373     H     0.19003      0.65287      0.27183      0
H374     H     0.52337      0.31953      0.60517      0
H375     H     0.8567       0.9862       0.9385       0
C376     C     0.12523      0.67857      0.2647       0
C377     C     0.45857      0.34523      0.59804      0
C378     C     0.7919       0.0119       0.93137      0
H379     H     0.11873      0.66347      0.25233      0
H380     H     0.45207      0.33013      0.58567      0
H381     H     0.7854       0.9968       0.919        0
C382     C     0.10513      0.72777      0.28944      0
C383     C     0.43847      0.39443      0.62278      0
C384     C     0.7718       0.0611       0.95611      0
H385     H     0.08583      0.74917      0.29463      0
H386     H     0.41917      0.41583      0.62797      0
H387     H     0.7525       0.0825       0.9613       0
C388     C     0.14673      0.71877      0.3011       0
C389     C     0.48007      0.38543      0.63444      0
C390     C     0.8134       0.0521       0.96777      0
H391     H     0.15183      0.73097      0.31373      0
H392     H     0.48517      0.39763      0.64707      0
H393     H     0.8185       0.0643       0.9804       0
C394     C     0.04419      0.7142       0.26104      0
C395     C     0.37753      0.38086      0.59438      0
C396     C     0.71086      0.04753      0.92771      0
C397     C     0.04369      0.77109      0.26108      0
C398     C     0.37703      0.43775      0.59442      0
C399     C     0.71036      0.10442      0.92775      0
H400     H     0.07273      0.80467      0.26853      0
H401     H     0.40607      0.47133      0.60187      0
H402     H     0.7394       0.138        0.9352       0
O403     O     0.32893      0.58947      0.29728      0
O404     O     0.66227      0.25613      0.63062      0
O405     O     0.9956       0.9228       0.96395      0
O406     O     0.30773      0.53087      0.32308      0
O407     O     0.64107      0.19753      0.65642      0
O408     O     0.9744       0.8642       0.98975      0
C409     C     0.31393      0.53747      0.30537      0
C410     C     0.64727      0.20413      0.63871      0
C411     C     0.9806       0.8708       0.97204      0
C412     C     0.30695      0.48529      0.29398      0
C413     C     0.64029      0.15195      0.62732      0
C414     C     0.97362      0.81862      0.96065      0
C415     C     0.29123      0.38237      0.27196      0
C416     C     0.62457      0.04903      0.6053       0
C417     C     0.9579       0.7157       0.93863      0
C418     C     0.32773      0.49587      0.27652      0
C419     C     0.66107      0.16253      0.60986      0
C420     C     0.9944       0.8292       0.94319      0
H421     H     0.34713      0.53717      0.27183      0
H422     H     0.68047      0.20383      0.60517      0
H423     H     0.0138       0.8705       0.9385       0
C424     C     0.32143      0.44667      0.2647       0
C425     C     0.65477      0.11333      0.59804      0
C426     C     0.9881       0.78         0.93137      0
H427     H     0.33653      0.45527      0.25233      0
H428     H     0.66987      0.12193      0.58567      0
H429     H     0.0032       0.7886       0.919        0
C430     C     0.27223      0.37737      0.28944      0
C431     C     0.60557      0.04403      0.62278      0
C432     C     0.9389       0.7107       0.95611      0
H433     H     0.25083      0.33667      0.29463      0
H434     H     0.58417      0.00333      0.62797      0
H435     H     0.9175       0.67         0.9613       0
C436     C     0.28123      0.42797      0.3011       0
C437     C     0.61457      0.09463      0.63444      0
C438     C     0.9479       0.7613       0.96777      0
H439     H     0.26903      0.42087      0.31373      0
H440     H     0.60237      0.08753      0.64707      0
H441     H     0.9357       0.7542       0.9804       0
C442     C     0.2858       0.33         0.26104      0
C443     C     0.61914      0.99666      0.59438      0
C444     C     0.95247      0.66333      0.92771      0
C445     C     0.22891      0.27261      0.26108      0
C446     C     0.56225      0.93927      0.59442      0
C447     C     0.89558      0.60594      0.92775      0
H448     H     0.19533      0.26807      0.26853      0
H449     H     0.52867      0.93473      0.60187      0
H450     H     0.862        0.6014       0.9352       0
O451     O     0.67107      0.26053      0.20272      0
O452     O     0.0044       0.9272       0.53605      0
O453     O     0.33773      0.59387      0.86938      0
O454     O     0.69227      0.22313      0.17692      0
O455     O     0.0256       0.8898       0.51025      0
O456     O     0.35893      0.55647      0.84358      0
C457     C     0.68607      0.22353      0.19463      0
C458     C     0.0194       0.8902       0.52796      0
C459     C     0.35273      0.55687      0.86129      0
C460     C     0.69305      0.17833      0.20602      0
C461     C     0.02638      0.845        0.53935      0
C462     C     0.35971      0.51167      0.87268      0
C463     C     0.75427      0.19533      0.21464      0
C464     C     0.0876       0.862        0.54797      0
C465     C     0.42093      0.52867      0.8813       0
H466     H     0.78957      0.23583      0.21327      0
H467     H     0.1229       0.9025       0.5466       0
H468     H     0.45623      0.56917      0.87993      0
C469     C     0.75777      0.14733      0.22527      0
C470     C     0.0911       0.814        0.5586       0
C471     C     0.42443      0.48067      0.89193      0
H472     H     0.79667      0.15643      0.23037      0
H473     H     0.13         0.8231       0.5637       0
H474     H     0.46333      0.48977      0.89703      0
C475     C     0.70877      0.09113      0.22804      0
C476     C     0.0421       0.7578       0.56137      0
C477     C     0.37543      0.42447      0.8947       0
C478     C     0.65527      0.07583      0.22027      0
C479     C     0.9886       0.7425       0.5536       0
C480     C     0.32193      0.40917      0.88693      0
H481     H     0.62157      0.03483      0.22207      0
H482     H     0.9549       0.7015       0.5554       0
H483     H     0.28823      0.36817      0.88873      0
C484     C     0.64497      0.11713      0.20923      0
C485     C     0.9783       0.7838       0.54256      0
C486     C     0.31163      0.45047      0.87589      0
H487     H     0.60497      0.10323      0.20397      0
H488     H     0.9383       0.7699       0.5373       0
H489     H     0.27163      0.43657      0.87063      0
C490     C     0.7142       0.04419      0.23896      0
C491     C     0.04753      0.71086      0.57229      0
C492     C     0.38086      0.37753      0.90562      0
C493     C     0.77109      0.04369      0.23892      0
C494     C     0.10442      0.71036      0.57225      0
C495     C     0.43775      0.37703      0.90558      0
H496     H     0.80467      0.07273      0.23147      0
H497     H     0.138        0.7394       0.5648       0
H498     H     0.47133      0.40607      0.89813      0
O499     O     0.58947      0.32893      0.20272      0
O500     O     0.9228       0.9956       0.53605      0
O501     O     0.25613      0.66227      0.86938      0
O502     O     0.53087      0.30773      0.17692      0
O503     O     0.8642       0.9744       0.51025      0
O504     O     0.19753      0.64107      0.84358      0
C505     C     0.53747      0.31393      0.19463      0
C506     C     0.8708       0.9806       0.52796      0
C507     C     0.20413      0.64727      0.86129      0
C508     C     0.48529      0.30695      0.20602      0
C509     C     0.81862      0.97362      0.53935      0
C510     C     0.15195      0.64029      0.87268      0
C511     C     0.38237      0.29123      0.22804      0
C512     C     0.7157       0.9579       0.56137      0
C513     C     0.04903      0.62457      0.8947       0
C514     C     0.49587      0.32773      0.22348      0
C515     C     0.8292       0.9944       0.55681      0
C516     C     0.16253      0.66107      0.89014      0
H517     H     0.53717      0.34713      0.22817      0
H518     H     0.8705       0.0138       0.5615       0
H519     H     0.20383      0.68047      0.89483      0
C520     C     0.44667      0.32143      0.2353       0
C521     C     0.78         0.9881       0.56863      0
C522     C     0.11333      0.65477      0.90196      0
H523     H     0.45527      0.33653      0.24767      0
H524     H     0.7886       0.0032       0.581        0
H525     H     0.12193      0.66987      0.91433      0
C526     C     0.37737      0.27223      0.21056      0
C527     C     0.7107       0.9389       0.54389      0
C528     C     0.04403      0.60557      0.87722      0
H529     H     0.33667      0.25083      0.20537      0
H530     H     0.67         0.9175       0.5387       0
H531     H     0.00333      0.58417      0.87203      0
C532     C     0.42797      0.28123      0.1989       0
C533     C     0.7613       0.9479       0.53223      0
C534     C     0.09463      0.61457      0.86556      0
H535     H     0.42087      0.26903      0.18627      0
H536     H     0.7542       0.9357       0.5196       0
H537     H     0.08753      0.60237      0.85293      0
C538     C     0.33         0.2858       0.23896      0
C539     C     0.66333      0.95247      0.57229      0
C540     C     0.99666      0.61914      0.90562      0
C541     C     0.27261      0.22891      0.23892      0
C542     C     0.60594      0.89558      0.57225      0
C543     C     0.93927      0.56225      0.90558      0
H544     H     0.26807      0.19533      0.23147      0
H545     H     0.6014       0.862        0.5648       0
H546     H     0.93473      0.52867      0.89813      0
O547     O     0.73947      0.41053      0.20272      0
O548     O     0.0728       0.0772       0.53605      0
O549     O     0.40613      0.74387      0.86938      0
O550     O     0.77687      0.46913      0.17692      0
O551     O     0.1102       0.1358       0.51025      0
O552     O     0.44353      0.80247      0.84358      0
C553     C     0.77647      0.46253      0.19463      0
C554     C     0.1098       0.1292       0.52796      0
C555     C     0.44313      0.79587      0.86129      0
C556     C     0.82167      0.51471      0.20602      0
C557     C     0.155        0.18138      0.53935      0
C558     C     0.48833      0.84805      0.87268      0
C559     C     0.80467      0.55893      0.21464      0
C560     C     0.138        0.2256       0.54797      0
C561     C     0.47133      0.89227      0.8813       0
H562     H     0.76417      0.55373      0.21327      0
H563     H     0.0975       0.2204       0.5466       0
H564     H     0.43083      0.88707      0.87993      0
C565     C     0.85267      0.61043      0.22527      0
C566     C     0.186        0.2771       0.5586       0
C567     C     0.51933      0.94377      0.89193      0
H568     H     0.84357      0.64023      0.23037      0
H569     H     0.1769       0.3069       0.5637       0
H570     H     0.51023      0.97357      0.89703      0
C571     C     0.90887      0.61763      0.22804      0
C572     C     0.2422       0.2843       0.56137      0
C573     C     0.57553      0.95097      0.8947       0
C574     C     0.92417      0.57943      0.22027      0
C575     C     0.2575       0.2461       0.5536       0
C576     C     0.59083      0.91277      0.88693      0
H577     H     0.96517      0.58673      0.22207      0
H578     H     0.2985       0.2534       0.5554       0
H579     H     0.63183      0.92007      0.88873      0
C580     C     0.88287      0.52783      0.20923      0
C581     C     0.2162       0.1945       0.54256      0
C582     C     0.54953      0.86117      0.87589      0
H583     H     0.89677      0.50173      0.20397      0
H584     H     0.2301       0.1684       0.5373       0
H585     H     0.56343      0.83507      0.87063      0
C586     C     0.95581      0.67         0.23896      0
C587     C     0.28914      0.33667      0.57229      0
C588     C     0.62247      0.00334      0.90562      0
C589     C     0.95631      0.72739      0.23892      0
C590     C     0.28964      0.39406      0.57225      0
C591     C     0.62297      0.06073      0.90558      0
H592     H     0.92727      0.73193      0.23147      0
H593     H     0.2606       0.3986       0.5648       0
H594     H     0.59393      0.06527      0.89813      0
Zn595    Zn    0.33333      0.66667      0.30694      0
Zn596    Zn    0.66667      0.33333      0.64028      0
Zn597    Zn    0            0            0.97361      0
Zn598    Zn    0.66667      0.33333      0.19306      0
Zn599    Zn    0            0            0.52639      0
Zn600    Zn    0.33333      0.66667      0.85972      0
O601     O     0            0            0            0
O602     O     0.33333      0.66667      0.33333      0
O603     O     0.66667      0.33333      0.66667      0
O604     O     0.66667      0.33333      0.16667      0
O605     O     0            0            0.5          0
O606     O     0.33333      0.66667      0.83333      0
C607     C     0.66765      0.66667      0.08333      0
C608     C     0.00099      0.33333      0.41667      0
C609     C     0.33432      0            0.75         0
H610     H     0.70598      0.66667      0.08333      0
H611     H     0.03932      0.33333      0.41667      0
H612     H     0.37265      0            0.75         0
C613     C     0.55448      0.66667      0.08333      0
C614     C     0.88782      0.33333      0.41667      0
C615     C     0.22115      0            0.75         0
C616     C     0.49748      0.66667      0.08333      0
C617     C     0.83082      0.33333      0.41667      0
C618     C     0.16415      0            0.75         0
C619     C     0.44998      0.66667      0.08333      0
C620     C     0.78332      0.33333      0.41667      0
C621     C     0.11665      0            0.75         0
C622     C     0.38825      0.66667      0.08333      0
C623     C     0.72159      0.33333      0.41667      0
C624     C     0.05492      0            0.75         0
C625     C     0.33333      0.00099      0.08333      0
C626     C     0.66667      0.66765      0.41667      0
C627     C     0            0.33432      0.75         0
H628     H     0.33333      0.03932      0.08333      0
H629     H     0.66667      0.70598      0.41667      0
H630     H     0            0.37265      0.75         0
C631     C     0.33333      0.88782      0.08333      0
C632     C     0.66667      0.55448      0.41667      0
C633     C     0            0.22115      0.75         0
C634     C     0.33333      0.83082      0.08333      0
C635     C     0.66667      0.49748      0.41667      0
C636     C     0            0.16415      0.75         0
C637     C     0.33333      0.78332      0.08333      0
C638     C     0.66667      0.44998      0.41667      0
C639     C     0            0.11665      0.75         0
C640     C     0.33333      0.72159      0.08333      0
C641     C     0.66667      0.38825      0.41667      0
C642     C     0            0.05492      0.75         0
C643     C     0.99901      0.33235      0.08333      0
C644     C     0.33235      0.99901      0.41667      0
C645     C     0.66568      0.66568      0.75         0
H646     H     0.96068      0.29402      0.08333      0
H647     H     0.29402      0.96068      0.41667      0
H648     H     0.62735      0.62735      0.75         0
C649     C     0.11218      0.44552      0.08333      0
C650     C     0.44552      0.11218      0.41667      0
C651     C     0.77885      0.77885      0.75         0
C652     C     0.16918      0.50252      0.08333      0
C653     C     0.50252      0.16918      0.41667      0
C654     C     0.83585      0.83585      0.75         0
C655     C     0.21668      0.55002      0.08333      0
C656     C     0.55002      0.21668      0.41667      0
C657     C     0.88335      0.88335      0.75         0
C658     C     0.27841      0.61175      0.08333      0
C659     C     0.61175      0.27841      0.41667      0
C660     C     0.94508      0.94508      0.75         0
C661     C     0.66568      0            0.25         0
C662     C     0.99901      0.66667      0.58333      0
C663     C     0.33235      0.33333      0.91667      0
H664     H     0.62735      0            0.25         0
H665     H     0.96068      0.66667      0.58333      0
H666     H     0.29402      0.33333      0.91667      0
C667     C     0.77885      0            0.25         0
C668     C     0.11218      0.66667      0.58333      0
C669     C     0.44552      0.33333      0.91667      0
C670     C     0.83585      0            0.25         0
C671     C     0.16918      0.66667      0.58333      0
C672     C     0.50252      0.33333      0.91667      0
C673     C     0.88335      0            0.25         0
C674     C     0.21668      0.66667      0.58333      0
C675     C     0.55002      0.33333      0.91667      0
C676     C     0.94508      0            0.25         0
C677     C     0.27841      0.66667      0.58333      0
C678     C     0.61175      0.33333      0.91667      0
C679     C     0            0.66568      0.25         0
C680     C     0.33333      0.33235      0.58333      0
C681     C     0.66667      0.99901      0.91667      0
H682     H     0            0.62735      0.25         0
H683     H     0.33333      0.29402      0.58333      0
H684     H     0.66667      0.96068      0.91667      0
C685     C     0            0.77885      0.25         0
C686     C     0.33333      0.44552      0.58333      0
C687     C     0.66667      0.11218      0.91667      0
C688     C     0            0.83585      0.25         0
C689     C     0.33333      0.50252      0.58333      0
C690     C     0.66667      0.16918      0.91667      0
C691     C     0            0.88335      0.25         0
C692     C     0.33333      0.55002      0.58333      0
C693     C     0.66667      0.21668      0.91667      0
C694     C     0            0.94508      0.25         0
C695     C     0.33333      0.61175      0.58333      0
C696     C     0.66667      0.27841      0.91667      0
C697     C     0.33432      0.33432      0.25         0
C698     C     0.66765      0.00099      0.58333      0
C699     C     0.00099      0.66765      0.91667      0
H700     H     0.37265      0.37265      0.25         0
H701     H     0.70598      0.03932      0.58333      0
H702     H     0.03932      0.70598      0.91667      0
C703     C     0.22115      0.22115      0.25         0
C704     C     0.55448      0.88782      0.58333      0
C705     C     0.88782      0.55448      0.91667      0
C706     C     0.16415      0.16415      0.25         0
C707     C     0.49748      0.83082      0.58333      0
C708     C     0.83082      0.49748      0.91667      0
C709     C     0.11665      0.11665      0.25         0
C710     C     0.44998      0.78332      0.58333      0
C711     C     0.78332      0.44998      0.91667      0
C712     C     0.05492      0.05492      0.25         0
C713     C     0.38825      0.72159      0.58333      0
C714     C     0.72159      0.38825      0.91667      0
C715     C     0.33333      0.61092      0.08333      0
C716     C     0.66667      0.27758      0.41667      0
C717     C     0            0.94425      0.75         0
H718     H     0.33333      0.57262      0.08333      0
H719     H     0.66667      0.23928      0.41667      0
H720     H     0            0.90595      0.75         0
C721     C     0.38908      0.72242      0.08333      0
C722     C     0.72242      0.38908      0.41667      0
C723     C     0.05575      0.05575      0.75         0
H724     H     0.42738      0.76072      0.08333      0
H725     H     0.76072      0.42738      0.41667      0
H726     H     0.09405      0.09405      0.75         0
C727     C     0.27758      0.66667      0.08333      0
C728     C     0.61092      0.33333      0.41667      0
C729     C     0.94425      0            0.75         0
H730     H     0.23928      0.66667      0.08333      0
H731     H     0.57262      0.33333      0.41667      0
H732     H     0.90595      0            0.75         0
C733     C     0            0.05575      0.25         0
C734     C     0.33333      0.72242      0.58333      0
C735     C     0.66667      0.38908      0.91667      0
H736     H     0            0.09405      0.25         0
H737     H     0.33333      0.76072      0.58333      0
H738     H     0.66667      0.42738      0.91667      0
C739     C     0.94425      0.94425      0.25         0
C740     C     0.27758      0.61092      0.58333      0
C741     C     0.61092      0.27758      0.91667      0
H742     H     0.90595      0.90595      0.25         0
H743     H     0.23928      0.57262      0.58333      0
H744     H     0.57262      0.23928      0.91667      0
C745     C     0.05575      0            0.25         0
C746     C     0.38908      0.66667      0.58333      0
C747     C     0.72242      0.33333      0.91667      0
H748     H     0.09405      0            0.25         0
H749     H     0.42738      0.66667      0.58333      0
H750     H     0.76072      0.33333      0.91667      0


