data_ZIF-20

_audit_creation_method RASPA-1.0
_audit_creation_date 2012-1-19
_audit_author_name 'Sofia Calero'

_cell_length_a    45.4725
_cell_length_b    45.4725
_cell_length_c    45.4725
_cell_angle_alpha 90
_cell_angle_beta  90
_cell_angle_gamma 90
_cell_volume      94025.7

_symmetry_cell_setting          triclinic
_symmetry_space_group_name_Hall 'P 1'
_symmetry_space_group_name_H-M  'P 1'
_symmetry_Int_Tables_number     1

_symmetry_equiv_pos_as_xyz 'x,y,z'

loop_
_atom_site_label
_atom_site_type_symbol
_atom_site_fract_x
_atom_site_fract_y
_atom_site_fract_z
_atom_site_charge
C1       C     0.2971       0.20289      0.0689       0
C2       C     0.2988       0.2229       0.11079      0
C3       C     0.3046       0.2392       0.13481      0
N1       N     0.28749      0.2328       0.1581       0
C4       C     0.3379       0.24839      0            0
C5       C     0.36059      0.2105       0.01511      0
C6       C     0.37339      0.18899      0.03101      0
N2       N     0.3852       0.16751      0.01401      0
C7       C     0.38729      0.2454       0.11271      0
C8       C     0.40719      0.2564       0.07149      0
C9       C     0.413        0.2642       0.04299      0
N3       N     0.442        0.271        0.0378       0
C10      C     0.2962       0.2962       0.06399      0
C11      C     0.33801      0.3167       0.06949      0
C12      C     0.3673       0.32321      0.0729       0
N4       N     0.3726       0.35219      0.07541      0
N5       N     0.31179      0.22341      0.08381      0
N6       N     0.3459       0.2348       0.02489      0
N7       N     0.3806       0.2491       0.08429      0
N8       N     0.32479      0.28941      0.06571      0
Zn1      Zn    0.3417       0.24949      0.0656       0
H1       H     0.301        0.199        0.0488       0
H2       H     0.31949      0.2538       0.13529      0
H3       H     0.32721      0.26629      0            0
H4       H     0.37401      0.18891      0.05179      0
H5       H     0.37291      0.24061      0.12711      0
H6       H     0.39831      0.2648       0.02819      0
H7       H     0.28151      0.28151      0.0616       0
H8       H     0.3823       0.30869      0.07349      0
C13      C     0.70291      0.7971       0.0689       0
C14      C     0.70119      0.77711      0.11079      0
C15      C     0.69541      0.76079      0.13481      0
N9       N     0.7125       0.76721      0.1581       0
C16      C     0.66209      0.7516       0            0
C17      C     0.6394       0.78951      0.01511      0
C18      C     0.6266       0.811        0.03101      0
N10      N     0.61479      0.8325       0.01401      0
C19      C     0.6127       0.75461      0.11271      0
C20      C     0.5928       0.74359      0.07149      0
C21      C     0.58699      0.73581      0.04299      0
N11      N     0.55801      0.72899      0.0378       0
C22      C     0.70381      0.70381      0.06399      0
C23      C     0.662        0.68329      0.06949      0
C24      C     0.63269      0.6768       0.0729       0
N12      N     0.62739      0.6478       0.07541      0
N13      N     0.6882       0.7766       0.08381      0
N14      N     0.65411      0.76521      0.02489      0
N15      N     0.61941      0.75089      0.08429      0
N16      N     0.6752       0.71061      0.06571      0
Zn2      Zn    0.65831      0.7505       0.0656       0
H9       H     0.69899      0.80099      0.0488       0
H10      H     0.6805       0.74621      0.13529      0
H11      H     0.6728       0.7337       0            0
H12      H     0.626        0.81111      0.05179      0
H13      H     0.6271       0.7594       0.12711      0
H14      H     0.6017       0.73519      0.02819      0
H15      H     0.7185       0.7185       0.0616       0
H16      H     0.61769      0.6913       0.07349      0
C25      C     0.70291      0.20289      0.93109      0
C26      C     0.70119      0.2229       0.8892       0
C27      C     0.69541      0.2392       0.8652       0
N17      N     0.7125       0.2328       0.84189      0
C28      C     0.66209      0.24839      0            0
C29      C     0.6394       0.2105       0.9849       0
C30      C     0.6266       0.18899      0.969        0
N18      N     0.61479      0.16751      0.986        0
C31      C     0.6127       0.2454       0.88731      0
C32      C     0.5928       0.2564       0.9285       0
C33      C     0.58699      0.2642       0.957        0
N19      N     0.55801      0.271        0.96221      0
C34      C     0.70381      0.2962       0.93599      0
C35      C     0.662        0.3167       0.9305       0
C36      C     0.63269      0.32321      0.92711      0
N20      N     0.62739      0.35219      0.9246       0
N21      N     0.6882       0.22341      0.9162       0
N22      N     0.65411      0.2348       0.97509      0
N23      N     0.61941      0.2491       0.9157       0
N24      N     0.6752       0.28941      0.9343       0
Zn3      Zn    0.65831      0.24949      0.93441      0
H17      H     0.69899      0.199        0.95119      0
H18      H     0.6805       0.2538       0.8647       0
H19      H     0.6728       0.26629      0            0
H20      H     0.626        0.18891      0.9482       0
H21      H     0.6271       0.24061      0.8729       0
H22      H     0.6017       0.2648       0.9718       0
H23      H     0.7185       0.28151      0.93839      0
H24      H     0.61769      0.30869      0.92649      0
C37      C     0.2971       0.7971       0.93109      0
C38      C     0.2988       0.77711      0.8892       0
C39      C     0.3046       0.76079      0.8652       0
N25      N     0.28749      0.76721      0.84189      0
C40      C     0.3379       0.7516       0            0
C41      C     0.36059      0.78951      0.9849       0
C42      C     0.37339      0.811        0.969        0
N26      N     0.3852       0.8325       0.986        0
C43      C     0.38729      0.75461      0.88731      0
C44      C     0.40719      0.74359      0.9285       0
C45      C     0.413        0.73581      0.957        0
N27      N     0.442        0.72899      0.96221      0
C46      C     0.2962       0.70381      0.93599      0
C47      C     0.33801      0.68329      0.9305       0
C48      C     0.3673       0.6768       0.92711      0
N28      N     0.3726       0.6478       0.9246       0
N29      N     0.31179      0.7766       0.9162       0
N30      N     0.3459       0.76521      0.97509      0
N31      N     0.3806       0.75089      0.9157       0
N32      N     0.32479      0.71061      0.9343       0
Zn4      Zn    0.3417       0.7505       0.93441      0
H25      H     0.301        0.80099      0.95119      0
H26      H     0.31949      0.74621      0.8647       0
H27      H     0.32721      0.7337       0            0
H28      H     0.37401      0.81111      0.9482       0
H29      H     0.37291      0.7594       0.8729       0
H30      H     0.39831      0.73519      0.9718       0
H31      H     0.28151      0.7185       0.93839      0
H32      H     0.3823       0.6913       0.92649      0
C49      C     0.0689       0.2971       0.20289      0
C50      C     0.11079      0.2988       0.2229       0
C51      C     0.13481      0.3046       0.2392       0
N33      N     0.1581       0.28749      0.2328       0
C52      C     0            0.3379       0.24839      0
C53      C     0.01511      0.36059      0.2105       0
C54      C     0.03101      0.37339      0.18899      0
N34      N     0.01401      0.3852       0.16751      0
C55      C     0.11271      0.38729      0.2454       0
C56      C     0.07149      0.40719      0.2564       0
C57      C     0.04299      0.413        0.2642       0
N35      N     0.0378       0.442        0.271        0
C58      C     0.06399      0.2962       0.2962       0
C59      C     0.06949      0.33801      0.3167       0
C60      C     0.0729       0.3673       0.32321      0
N36      N     0.07541      0.3726       0.35219      0
N37      N     0.08381      0.31179      0.22341      0
N38      N     0.02489      0.3459       0.2348       0
N39      N     0.08429      0.3806       0.2491       0
N40      N     0.06571      0.32479      0.28941      0
Zn5      Zn    0.0656       0.3417       0.24949      0
H33      H     0.0488       0.301        0.199        0
H34      H     0.13529      0.31949      0.2538       0
H35      H     0            0.32721      0.26629      0
H36      H     0.05179      0.37401      0.18891      0
H37      H     0.12711      0.37291      0.24061      0
H38      H     0.02819      0.39831      0.2648       0
H39      H     0.0616       0.28151      0.28151      0
H40      H     0.07349      0.3823       0.30869      0
C61      C     0.0689       0.70291      0.7971       0
C62      C     0.11079      0.70119      0.77711      0
C63      C     0.13481      0.69541      0.76079      0
N41      N     0.1581       0.7125       0.76721      0
C64      C     0            0.66209      0.7516       0
C65      C     0.01511      0.6394       0.78951      0
C66      C     0.03101      0.6266       0.811        0
N42      N     0.01401      0.61479      0.8325       0
C67      C     0.11271      0.6127       0.75461      0
C68      C     0.07149      0.5928       0.74359      0
C69      C     0.04299      0.58699      0.73581      0
N43      N     0.0378       0.55801      0.72899      0
C70      C     0.06399      0.70381      0.70381      0
C71      C     0.06949      0.662        0.68329      0
C72      C     0.0729       0.63269      0.6768       0
N44      N     0.07541      0.62739      0.6478       0
N45      N     0.08381      0.6882       0.7766       0
N46      N     0.02489      0.65411      0.76521      0
N47      N     0.08429      0.61941      0.75089      0
N48      N     0.06571      0.6752       0.71061      0
Zn6      Zn    0.0656       0.65831      0.7505       0
H41      H     0.0488       0.69899      0.80099      0
H42      H     0.13529      0.6805       0.74621      0
H43      H     0            0.6728       0.7337       0
H44      H     0.05179      0.626        0.81111      0
H45      H     0.12711      0.6271       0.7594       0
H46      H     0.02819      0.6017       0.73519      0
H47      H     0.0616       0.7185       0.7185       0
H48      H     0.07349      0.61769      0.6913       0
C73      C     0.93109      0.70291      0.20289      0
C74      C     0.8892       0.70119      0.2229       0
C75      C     0.8652       0.69541      0.2392       0
N49      N     0.84189      0.7125       0.2328       0
C76      C     0            0.66209      0.24839      0
C77      C     0.9849       0.6394       0.2105       0
C78      C     0.969        0.6266       0.18899      0
N50      N     0.986        0.61479      0.16751      0
C79      C     0.88731      0.6127       0.2454       0
C80      C     0.9285       0.5928       0.2564       0
C81      C     0.957        0.58699      0.2642       0
N51      N     0.96221      0.55801      0.271        0
C82      C     0.93599      0.70381      0.2962       0
C83      C     0.9305       0.662        0.3167       0
C84      C     0.92711      0.63269      0.32321      0
N52      N     0.9246       0.62739      0.35219      0
N53      N     0.9162       0.6882       0.22341      0
N54      N     0.97509      0.65411      0.2348       0
N55      N     0.9157       0.61941      0.2491       0
N56      N     0.9343       0.6752       0.28941      0
Zn7      Zn    0.93441      0.65831      0.24949      0
H49      H     0.95119      0.69899      0.199        0
H50      H     0.8647       0.6805       0.2538       0
H51      H     0            0.6728       0.26629      0
H52      H     0.9482       0.626        0.18891      0
H53      H     0.8729       0.6271       0.24061      0
H54      H     0.9718       0.6017       0.2648       0
H55      H     0.93839      0.7185       0.28151      0
H56      H     0.92649      0.61769      0.30869      0
C85      C     0.93109      0.2971       0.7971       0
C86      C     0.8892       0.2988       0.77711      0
C87      C     0.8652       0.3046       0.76079      0
N57      N     0.84189      0.28749      0.76721      0
C88      C     0            0.3379       0.7516       0
C89      C     0.9849       0.36059      0.78951      0
C90      C     0.969        0.37339      0.811        0
N58      N     0.986        0.3852       0.8325       0
C91      C     0.88731      0.38729      0.75461      0
C92      C     0.9285       0.40719      0.74359      0
C93      C     0.957        0.413        0.73581      0
N59      N     0.96221      0.442        0.72899      0
C94      C     0.93599      0.2962       0.70381      0
C95      C     0.9305       0.33801      0.68329      0
C96      C     0.92711      0.3673       0.6768       0
N60      N     0.9246       0.3726       0.6478       0
N61      N     0.9162       0.31179      0.7766       0
N62      N     0.97509      0.3459       0.76521      0
N63      N     0.9157       0.3806       0.75089      0
N64      N     0.9343       0.32479      0.71061      0
Zn8      Zn    0.93441      0.3417       0.7505       0
H57      H     0.95119      0.301        0.80099      0
H58      H     0.8647       0.31949      0.74621      0
H59      H     0            0.32721      0.7337       0
H60      H     0.9482       0.37401      0.81111      0
H61      H     0.8729       0.37291      0.7594       0
H62      H     0.9718       0.39831      0.73519      0
H63      H     0.93839      0.28151      0.7185       0
H64      H     0.92649      0.3823       0.6913       0
C97      C     0.20289      0.0689       0.2971       0
C98      C     0.2229       0.11079      0.2988       0
C99      C     0.2392       0.13481      0.3046       0
N65      N     0.2328       0.1581       0.28749      0
C100     C     0.24839      0            0.3379       0
C101     C     0.2105       0.01511      0.36059      0
C102     C     0.18899      0.03101      0.37339      0
N66      N     0.16751      0.01401      0.3852       0
C103     C     0.2454       0.11271      0.38729      0
C104     C     0.2564       0.07149      0.40719      0
C105     C     0.2642       0.04299      0.413        0
N67      N     0.271        0.0378       0.442        0
C106     C     0.2962       0.06399      0.2962       0
C107     C     0.3167       0.06949      0.33801      0
C108     C     0.32321      0.0729       0.3673       0
N68      N     0.35219      0.07541      0.3726       0
N69      N     0.22341      0.08381      0.31179      0
N70      N     0.2348       0.02489      0.3459       0
N71      N     0.2491       0.08429      0.3806       0
N72      N     0.28941      0.06571      0.32479      0
Zn9      Zn    0.24949      0.0656       0.3417       0
H65      H     0.199        0.0488       0.301        0
H66      H     0.2538       0.13529      0.31949      0
H67      H     0.26629      0            0.32721      0
H68      H     0.18891      0.05179      0.37401      0
H69      H     0.24061      0.12711      0.37291      0
H70      H     0.2648       0.02819      0.39831      0
H71      H     0.28151      0.0616       0.28151      0
H72      H     0.30869      0.07349      0.3823       0
C109     C     0.7971       0.0689       0.70291      0
C110     C     0.77711      0.11079      0.70119      0
C111     C     0.76079      0.13481      0.69541      0
N73      N     0.76721      0.1581       0.7125       0
C112     C     0.7516       0            0.66209      0
C113     C     0.78951      0.01511      0.6394       0
C114     C     0.811        0.03101      0.6266       0
N74      N     0.8325       0.01401      0.61479      0
C115     C     0.75461      0.11271      0.6127       0
C116     C     0.74359      0.07149      0.5928       0
C117     C     0.73581      0.04299      0.58699      0
N75      N     0.72899      0.0378       0.55801      0
C118     C     0.70381      0.06399      0.70381      0
C119     C     0.68329      0.06949      0.662        0
C120     C     0.6768       0.0729       0.63269      0
N76      N     0.6478       0.07541      0.62739      0
N77      N     0.7766       0.08381      0.6882       0
N78      N     0.76521      0.02489      0.65411      0
N79      N     0.75089      0.08429      0.61941      0
N80      N     0.71061      0.06571      0.6752       0
Zn10     Zn    0.7505       0.0656       0.65831      0
H73      H     0.80099      0.0488       0.69899      0
H74      H     0.74621      0.13529      0.6805       0
H75      H     0.7337       0            0.6728       0
H76      H     0.81111      0.05179      0.626        0
H77      H     0.7594       0.12711      0.6271       0
H78      H     0.73519      0.02819      0.6017       0
H79      H     0.7185       0.0616       0.7185       0
H80      H     0.6913       0.07349      0.61769      0
C121     C     0.20289      0.93109      0.70291      0
C122     C     0.2229       0.8892       0.70119      0
C123     C     0.2392       0.8652       0.69541      0
N81      N     0.2328       0.84189      0.7125       0
C124     C     0.24839      0            0.66209      0
C125     C     0.2105       0.9849       0.6394       0
C126     C     0.18899      0.969        0.6266       0
N82      N     0.16751      0.986        0.61479      0
C127     C     0.2454       0.88731      0.6127       0
C128     C     0.2564       0.9285       0.5928       0
C129     C     0.2642       0.957        0.58699      0
N83      N     0.271        0.96221      0.55801      0
C130     C     0.2962       0.93599      0.70381      0
C131     C     0.3167       0.9305       0.662        0
C132     C     0.32321      0.92711      0.63269      0
N84      N     0.35219      0.9246       0.62739      0
N85      N     0.22341      0.9162       0.6882       0
N86      N     0.2348       0.97509      0.65411      0
N87      N     0.2491       0.9157       0.61941      0
N88      N     0.28941      0.9343       0.6752       0
Zn11     Zn    0.24949      0.93441      0.65831      0
H81      H     0.199        0.95119      0.69899      0
H82      H     0.2538       0.8647       0.6805       0
H83      H     0.26629      0            0.6728       0
H84      H     0.18891      0.9482       0.626        0
H85      H     0.24061      0.8729       0.6271       0
H86      H     0.2648       0.9718       0.6017       0
H87      H     0.28151      0.93839      0.7185       0
H88      H     0.30869      0.92649      0.61769      0
C133     C     0.7971       0.93109      0.2971       0
C134     C     0.77711      0.8892       0.2988       0
C135     C     0.76079      0.8652       0.3046       0
N89      N     0.76721      0.84189      0.28749      0
C136     C     0.7516       0            0.3379       0
C137     C     0.78951      0.9849       0.36059      0
C138     C     0.811        0.969        0.37339      0
N90      N     0.8325       0.986        0.3852       0
C139     C     0.75461      0.88731      0.38729      0
C140     C     0.74359      0.9285       0.40719      0
C141     C     0.73581      0.957        0.413        0
N91      N     0.72899      0.96221      0.442        0
C142     C     0.70381      0.93599      0.2962       0
C143     C     0.68329      0.9305       0.33801      0
C144     C     0.6768       0.92711      0.3673       0
N92      N     0.6478       0.9246       0.3726       0
N93      N     0.7766       0.9162       0.31179      0
N94      N     0.76521      0.97509      0.3459       0
N95      N     0.75089      0.9157       0.3806       0
N96      N     0.71061      0.9343       0.32479      0
Zn12     Zn    0.7505       0.93441      0.3417       0
H89      H     0.80099      0.95119      0.301        0
H90      H     0.74621      0.8647       0.31949      0
H91      H     0.7337       0            0.32721      0
H92      H     0.81111      0.9482       0.37401      0
H93      H     0.7594       0.8729       0.37291      0
H94      H     0.73519      0.9718       0.39831      0
H95      H     0.7185       0.93839      0.28151      0
H96      H     0.6913       0.92649      0.3823       0
C145     C     0.20289      0.2971       0.93109      0
C146     C     0.2229       0.2988       0.8892       0
C147     C     0.2392       0.3046       0.8652       0
N97      N     0.2328       0.28749      0.84189      0
C148     C     0.24839      0.3379       0            0
C149     C     0.2105       0.36059      0.9849       0
C150     C     0.18899      0.37339      0.969        0
N98      N     0.16751      0.3852       0.986        0
C151     C     0.2454       0.38729      0.88731      0
C152     C     0.2564       0.40719      0.9285       0
C153     C     0.2642       0.413        0.957        0
N99      N     0.271        0.442        0.96221      0
C154     C     0.2962       0.2962       0.93599      0
C155     C     0.3167       0.33801      0.9305       0
C156     C     0.32321      0.3673       0.92711      0
N100     N     0.35219      0.3726       0.9246       0
N101     N     0.22341      0.31179      0.9162       0
N102     N     0.2348       0.3459       0.97509      0
N103     N     0.2491       0.3806       0.9157       0
N104     N     0.28941      0.32479      0.9343       0
Zn13     Zn    0.24949      0.3417       0.93441      0
H97      H     0.199        0.301        0.95119      0
H98      H     0.2538       0.31949      0.8647       0
H99      H     0.26629      0.32721      0            0
H100     H     0.18891      0.37401      0.9482       0
H101     H     0.24061      0.37291      0.8729       0
H102     H     0.2648       0.39831      0.9718       0
H103     H     0.28151      0.28151      0.93839      0
H104     H     0.30869      0.3823       0.92649      0
C157     C     0.7971       0.70291      0.93109      0
C158     C     0.77711      0.70119      0.8892       0
C159     C     0.76079      0.69541      0.8652       0
N105     N     0.76721      0.7125       0.84189      0
C160     C     0.7516       0.66209      0            0
C161     C     0.78951      0.6394       0.9849       0
C162     C     0.811        0.6266       0.969        0
N106     N     0.8325       0.61479      0.986        0
C163     C     0.75461      0.6127       0.88731      0
C164     C     0.74359      0.5928       0.9285       0
C165     C     0.73581      0.58699      0.957        0
N107     N     0.72899      0.55801      0.96221      0
C166     C     0.70381      0.70381      0.93599      0
C167     C     0.68329      0.662        0.9305       0
C168     C     0.6768       0.63269      0.92711      0
N108     N     0.6478       0.62739      0.9246       0
N109     N     0.7766       0.6882       0.9162       0
N110     N     0.76521      0.65411      0.97509      0
N111     N     0.75089      0.61941      0.9157       0
N112     N     0.71061      0.6752       0.9343       0
Zn14     Zn    0.7505       0.65831      0.93441      0
H105     H     0.80099      0.69899      0.95119      0
H106     H     0.74621      0.6805       0.8647       0
H107     H     0.7337       0.6728       0            0
H108     H     0.81111      0.626        0.9482       0
H109     H     0.7594       0.6271       0.8729       0
H110     H     0.73519      0.6017       0.9718       0
H111     H     0.7185       0.7185       0.93839      0
H112     H     0.6913       0.61769      0.92649      0
C169     C     0.20289      0.70291      0.0689       0
C170     C     0.2229       0.70119      0.11079      0
C171     C     0.2392       0.69541      0.13481      0
N113     N     0.2328       0.7125       0.1581       0
C172     C     0.24839      0.66209      0            0
C173     C     0.2105       0.6394       0.01511      0
C174     C     0.18899      0.6266       0.03101      0
N114     N     0.16751      0.61479      0.01401      0
C175     C     0.2454       0.6127       0.11271      0
C176     C     0.2564       0.5928       0.07149      0
C177     C     0.2642       0.58699      0.04299      0
N115     N     0.271        0.55801      0.0378       0
C178     C     0.2962       0.70381      0.06399      0
C179     C     0.3167       0.662        0.06949      0
C180     C     0.32321      0.63269      0.0729       0
N116     N     0.35219      0.62739      0.07541      0
N117     N     0.22341      0.6882       0.08381      0
N118     N     0.2348       0.65411      0.02489      0
N119     N     0.2491       0.61941      0.08429      0
N120     N     0.28941      0.6752       0.06571      0
Zn15     Zn    0.24949      0.65831      0.0656       0
H113     H     0.199        0.69899      0.0488       0
H114     H     0.2538       0.6805       0.13529      0
H115     H     0.26629      0.6728       0            0
H116     H     0.18891      0.626        0.05179      0
H117     H     0.24061      0.6271       0.12711      0
H118     H     0.2648       0.6017       0.02819      0
H119     H     0.28151      0.7185       0.0616       0
H120     H     0.30869      0.61769      0.07349      0
C181     C     0.7971       0.2971       0.0689       0
C182     C     0.77711      0.2988       0.11079      0
C183     C     0.76079      0.3046       0.13481      0
N121     N     0.76721      0.28749      0.1581       0
C184     C     0.7516       0.3379       0            0
C185     C     0.78951      0.36059      0.01511      0
C186     C     0.811        0.37339      0.03101      0
N122     N     0.8325       0.3852       0.01401      0
C187     C     0.75461      0.38729      0.11271      0
C188     C     0.74359      0.40719      0.07149      0
C189     C     0.73581      0.413        0.04299      0
N123     N     0.72899      0.442        0.0378       0
C190     C     0.70381      0.2962       0.06399      0
C191     C     0.68329      0.33801      0.06949      0
C192     C     0.6768       0.3673       0.0729       0
N124     N     0.6478       0.3726       0.07541      0
N125     N     0.7766       0.31179      0.08381      0
N126     N     0.76521      0.3459       0.02489      0
N127     N     0.75089      0.3806       0.08429      0
N128     N     0.71061      0.32479      0.06571      0
Zn16     Zn    0.7505       0.3417       0.0656       0
H121     H     0.80099      0.301        0.0488       0
H122     H     0.74621      0.31949      0.13529      0
H123     H     0.7337       0.32721      0            0
H124     H     0.81111      0.37401      0.05179      0
H125     H     0.7594       0.37291      0.12711      0
H126     H     0.73519      0.39831      0.02819      0
H127     H     0.7185       0.28151      0.0616       0
H128     H     0.6913       0.3823       0.07349      0
C193     C     0.2971       0.0689       0.7971       0
C194     C     0.2988       0.11079      0.77711      0
C195     C     0.3046       0.13481      0.76079      0
N129     N     0.28749      0.1581       0.76721      0
C196     C     0.3379       0            0.7516       0
C197     C     0.36059      0.01511      0.78951      0
C198     C     0.37339      0.03101      0.811        0
N130     N     0.3852       0.01401      0.8325       0
C199     C     0.38729      0.11271      0.75461      0
C200     C     0.40719      0.07149      0.74359      0
C201     C     0.413        0.04299      0.73581      0
N131     N     0.442        0.0378       0.72899      0
C202     C     0.2962       0.06399      0.70381      0
C203     C     0.33801      0.06949      0.68329      0
C204     C     0.3673       0.0729       0.6768       0
N132     N     0.3726       0.07541      0.6478       0
N133     N     0.31179      0.08381      0.7766       0
N134     N     0.3459       0.02489      0.76521      0
N135     N     0.3806       0.08429      0.75089      0
N136     N     0.32479      0.06571      0.71061      0
Zn17     Zn    0.3417       0.0656       0.7505       0
H129     H     0.301        0.0488       0.80099      0
H130     H     0.31949      0.13529      0.74621      0
H131     H     0.32721      0            0.7337       0
H132     H     0.37401      0.05179      0.81111      0
H133     H     0.37291      0.12711      0.7594       0
H134     H     0.39831      0.02819      0.73519      0
H135     H     0.28151      0.0616       0.7185       0
H136     H     0.3823       0.07349      0.6913       0
C205     C     0.70291      0.0689       0.20289      0
C206     C     0.70119      0.11079      0.2229       0
C207     C     0.69541      0.13481      0.2392       0
N137     N     0.7125       0.1581       0.2328       0
C208     C     0.66209      0            0.24839      0
C209     C     0.6394       0.01511      0.2105       0
C210     C     0.6266       0.03101      0.18899      0
N138     N     0.61479      0.01401      0.16751      0
C211     C     0.6127       0.11271      0.2454       0
C212     C     0.5928       0.07149      0.2564       0
C213     C     0.58699      0.04299      0.2642       0
N139     N     0.55801      0.0378       0.271        0
C214     C     0.70381      0.06399      0.2962       0
C215     C     0.662        0.06949      0.3167       0
C216     C     0.63269      0.0729       0.32321      0
N140     N     0.62739      0.07541      0.35219      0
N141     N     0.6882       0.08381      0.22341      0
N142     N     0.65411      0.02489      0.2348       0
N143     N     0.61941      0.08429      0.2491       0
N144     N     0.6752       0.06571      0.28941      0
Zn18     Zn    0.65831      0.0656       0.24949      0
H137     H     0.69899      0.0488       0.199        0
H138     H     0.6805       0.13529      0.2538       0
H139     H     0.6728       0            0.26629      0
H140     H     0.626        0.05179      0.18891      0
H141     H     0.6271       0.12711      0.24061      0
H142     H     0.6017       0.02819      0.2648       0
H143     H     0.7185       0.0616       0.28151      0
H144     H     0.61769      0.07349      0.30869      0
C217     C     0.70291      0.93109      0.7971       0
C218     C     0.70119      0.8892       0.77711      0
C219     C     0.69541      0.8652       0.76079      0
N145     N     0.7125       0.84189      0.76721      0
C220     C     0.66209      0            0.7516       0
C221     C     0.6394       0.9849       0.78951      0
C222     C     0.6266       0.969        0.811        0
N146     N     0.61479      0.986        0.8325       0
C223     C     0.6127       0.88731      0.75461      0
C224     C     0.5928       0.9285       0.74359      0
C225     C     0.58699      0.957        0.73581      0
N147     N     0.55801      0.96221      0.72899      0
C226     C     0.70381      0.93599      0.70381      0
C227     C     0.662        0.9305       0.68329      0
C228     C     0.63269      0.92711      0.6768       0
N148     N     0.62739      0.9246       0.6478       0
N149     N     0.6882       0.9162       0.7766       0
N150     N     0.65411      0.97509      0.76521      0
N151     N     0.61941      0.9157       0.75089      0
N152     N     0.6752       0.9343       0.71061      0
Zn19     Zn    0.65831      0.93441      0.7505       0
H145     H     0.69899      0.95119      0.80099      0
H146     H     0.6805       0.8647       0.74621      0
H147     H     0.6728       0            0.7337       0
H148     H     0.626        0.9482       0.81111      0
H149     H     0.6271       0.8729       0.7594       0
H150     H     0.6017       0.9718       0.73519      0
H151     H     0.7185       0.93839      0.7185       0
H152     H     0.61769      0.92649      0.6913       0
C229     C     0.2971       0.93109      0.20289      0
C230     C     0.2988       0.8892       0.2229       0
C231     C     0.3046       0.8652       0.2392       0
N153     N     0.28749      0.84189      0.2328       0
C232     C     0.3379       0            0.24839      0
C233     C     0.36059      0.9849       0.2105       0
C234     C     0.37339      0.969        0.18899      0
N154     N     0.3852       0.986        0.16751      0
C235     C     0.38729      0.88731      0.2454       0
C236     C     0.40719      0.9285       0.2564       0
C237     C     0.413        0.957        0.2642       0
N155     N     0.442        0.96221      0.271        0
C238     C     0.2962       0.93599      0.2962       0
C239     C     0.33801      0.9305       0.3167       0
C240     C     0.3673       0.92711      0.32321      0
N156     N     0.3726       0.9246       0.35219      0
N157     N     0.31179      0.9162       0.22341      0
N158     N     0.3459       0.97509      0.2348       0
N159     N     0.3806       0.9157       0.2491       0
N160     N     0.32479      0.9343       0.28941      0
Zn20     Zn    0.3417       0.93441      0.24949      0
H153     H     0.301        0.95119      0.199        0
H154     H     0.31949      0.8647       0.2538       0
H155     H     0.32721      0            0.26629      0
H156     H     0.37401      0.9482       0.18891      0
H157     H     0.37291      0.8729       0.24061      0
H158     H     0.39831      0.9718       0.2648       0
H159     H     0.28151      0.93839      0.28151      0
H160     H     0.3823       0.92649      0.30869      0
C241     C     0.0689       0.20289      0.70291      0
C242     C     0.11079      0.2229       0.70119      0
C243     C     0.13481      0.2392       0.69541      0
N161     N     0.1581       0.2328       0.7125       0
C244     C     0            0.24839      0.66209      0
C245     C     0.01511      0.2105       0.6394       0
C246     C     0.03101      0.18899      0.6266       0
N162     N     0.01401      0.16751      0.61479      0
C247     C     0.11271      0.2454       0.6127       0
C248     C     0.07149      0.2564       0.5928       0
C249     C     0.04299      0.2642       0.58699      0
N163     N     0.0378       0.271        0.55801      0
C250     C     0.06399      0.2962       0.70381      0
C251     C     0.06949      0.3167       0.662        0
C252     C     0.0729       0.32321      0.63269      0
N164     N     0.07541      0.35219      0.62739      0
N165     N     0.08381      0.22341      0.6882       0
N166     N     0.02489      0.2348       0.65411      0
N167     N     0.08429      0.2491       0.61941      0
N168     N     0.06571      0.28941      0.6752       0
Zn21     Zn    0.0656       0.24949      0.65831      0
H161     H     0.0488       0.199        0.69899      0
H162     H     0.13529      0.2538       0.6805       0
H163     H     0            0.26629      0.6728       0
H164     H     0.05179      0.18891      0.626        0
H165     H     0.12711      0.24061      0.6271       0
H166     H     0.02819      0.2648       0.6017       0
H167     H     0.0616       0.28151      0.7185       0
H168     H     0.07349      0.30869      0.61769      0
C253     C     0.0689       0.7971       0.2971       0
C254     C     0.11079      0.77711      0.2988       0
C255     C     0.13481      0.76079      0.3046       0
N169     N     0.1581       0.76721      0.28749      0
C256     C     0            0.7516       0.3379       0
C257     C     0.01511      0.78951      0.36059      0
C258     C     0.03101      0.811        0.37339      0
N170     N     0.01401      0.8325       0.3852       0
C259     C     0.11271      0.75461      0.38729      0
C260     C     0.07149      0.74359      0.40719      0
C261     C     0.04299      0.73581      0.413        0
N171     N     0.0378       0.72899      0.442        0
C262     C     0.06399      0.70381      0.2962       0
C263     C     0.06949      0.68329      0.33801      0
C264     C     0.0729       0.6768       0.3673       0
N172     N     0.07541      0.6478       0.3726       0
N173     N     0.08381      0.7766       0.31179      0
N174     N     0.02489      0.76521      0.3459       0
N175     N     0.08429      0.75089      0.3806       0
N176     N     0.06571      0.71061      0.32479      0
Zn22     Zn    0.0656       0.7505       0.3417       0
H169     H     0.0488       0.80099      0.301        0
H170     H     0.13529      0.74621      0.31949      0
H171     H     0            0.7337       0.32721      0
H172     H     0.05179      0.81111      0.37401      0
H173     H     0.12711      0.7594       0.37291      0
H174     H     0.02819      0.73519      0.39831      0
H175     H     0.0616       0.7185       0.28151      0
H176     H     0.07349      0.6913       0.3823       0
C265     C     0.93109      0.20289      0.2971       0
C266     C     0.8892       0.2229       0.2988       0
C267     C     0.8652       0.2392       0.3046       0
N177     N     0.84189      0.2328       0.28749      0
C268     C     0            0.24839      0.3379       0
C269     C     0.9849       0.2105       0.36059      0
C270     C     0.969        0.18899      0.37339      0
N178     N     0.986        0.16751      0.3852       0
C271     C     0.88731      0.2454       0.38729      0
C272     C     0.9285       0.2564       0.40719      0
C273     C     0.957        0.2642       0.413        0
N179     N     0.96221      0.271        0.442        0
C274     C     0.93599      0.2962       0.2962       0
C275     C     0.9305       0.3167       0.33801      0
C276     C     0.92711      0.32321      0.3673       0
N180     N     0.9246       0.35219      0.3726       0
N181     N     0.9162       0.22341      0.31179      0
N182     N     0.97509      0.2348       0.3459       0
N183     N     0.9157       0.2491       0.3806       0
N184     N     0.9343       0.28941      0.32479      0
Zn23     Zn    0.93441      0.24949      0.3417       0
H177     H     0.95119      0.199        0.301        0
H178     H     0.8647       0.2538       0.31949      0
H179     H     0            0.26629      0.32721      0
H180     H     0.9482       0.18891      0.37401      0
H181     H     0.8729       0.24061      0.37291      0
H182     H     0.9718       0.2648       0.39831      0
H183     H     0.93839      0.28151      0.28151      0
H184     H     0.92649      0.30869      0.3823       0
C277     C     0.93109      0.7971       0.70291      0
C278     C     0.8892       0.77711      0.70119      0
C279     C     0.8652       0.76079      0.69541      0
N185     N     0.84189      0.76721      0.7125       0
C280     C     0            0.7516       0.66209      0
C281     C     0.9849       0.78951      0.6394       0
C282     C     0.969        0.811        0.6266       0
N186     N     0.986        0.8325       0.61479      0
C283     C     0.88731      0.75461      0.6127       0
C284     C     0.9285       0.74359      0.5928       0
C285     C     0.957        0.73581      0.58699      0
N187     N     0.96221      0.72899      0.55801      0
C286     C     0.93599      0.70381      0.70381      0
C287     C     0.9305       0.68329      0.662        0
C288     C     0.92711      0.6768       0.63269      0
N188     N     0.9246       0.6478       0.62739      0
N189     N     0.9162       0.7766       0.6882       0
N190     N     0.97509      0.76521      0.65411      0
N191     N     0.9157       0.75089      0.61941      0
N192     N     0.9343       0.71061      0.6752       0
Zn24     Zn    0.93441      0.7505       0.65831      0
H185     H     0.95119      0.80099      0.69899      0
H186     H     0.8647       0.74621      0.6805       0
H187     H     0            0.7337       0.6728       0
H188     H     0.9482       0.81111      0.626        0
H189     H     0.8729       0.7594       0.6271       0
H190     H     0.9718       0.73519      0.6017       0
H191     H     0.93839      0.7185       0.7185       0
H192     H     0.92649      0.6913       0.61769      0
C289     C     0.70291      0.7971       0.93109      0
C290     C     0.70119      0.77711      0.8892       0
C291     C     0.69541      0.76079      0.8652       0
N193     N     0.7125       0.76721      0.84189      0
C292     C     0.6394       0.78951      0.9849       0
N194     N     0.6266       0.811        0.969        0
C293     C     0.61479      0.8325       0.986        0
C294     C     0.6127       0.75461      0.88731      0
C295     C     0.5928       0.74359      0.9285       0
C296     C     0.58699      0.73581      0.957        0
N195     N     0.55801      0.72899      0.96221      0
C297     C     0.662        0.68329      0.9305       0
N196     N     0.63269      0.6768       0.92711      0
C298     C     0.62739      0.6478       0.9246       0
N197     N     0.6882       0.7766       0.9162       0
N198     N     0.65411      0.76521      0.97509      0
N199     N     0.61941      0.75089      0.9157       0
N200     N     0.6752       0.71061      0.9343       0
Zn25     Zn    0.65831      0.7505       0.93441      0
H193     H     0.69899      0.80099      0.95119      0
H194     H     0.6805       0.74621      0.8647       0
H195     H     0.60579      0.84871      0.9763       0
H196     H     0.6271       0.7594       0.8729       0
H197     H     0.6017       0.73519      0.9718       0
H198     H     0.60751      0.6416       0.92269      0
C299     C     0.2971       0.20289      0.93109      0
C300     C     0.2988       0.2229       0.8892       0
C301     C     0.3046       0.2392       0.8652       0
N201     N     0.28749      0.2328       0.84189      0
C302     C     0.36059      0.2105       0.9849       0
N202     N     0.37339      0.18899      0.969        0
C303     C     0.3852       0.16751      0.986        0
C304     C     0.38729      0.2454       0.88731      0
C305     C     0.40719      0.2564       0.9285       0
C306     C     0.413        0.2642       0.957        0
N203     N     0.442        0.271        0.96221      0
C307     C     0.33801      0.3167       0.9305       0
N204     N     0.3673       0.32321      0.92711      0
C308     C     0.3726       0.35219      0.9246       0
N205     N     0.31179      0.22341      0.9162       0
N206     N     0.3459       0.2348       0.97509      0
N207     N     0.3806       0.2491       0.9157       0
N208     N     0.32479      0.28941      0.9343       0
Zn26     Zn    0.3417       0.24949      0.93441      0
H199     H     0.301        0.199        0.95119      0
H200     H     0.31949      0.2538       0.8647       0
H201     H     0.39419      0.1513       0.9763       0
H202     H     0.37291      0.24061      0.8729       0
H203     H     0.39831      0.2648       0.9718       0
H204     H     0.3925       0.35839      0.92269      0
C309     C     0.2971       0.7971       0.0689       0
C310     C     0.2988       0.77711      0.11079      0
C311     C     0.3046       0.76079      0.13481      0
N209     N     0.28749      0.76721      0.1581       0
C312     C     0.36059      0.78951      0.01511      0
N210     N     0.37339      0.811        0.03101      0
C313     C     0.3852       0.8325       0.01401      0
C314     C     0.38729      0.75461      0.11271      0
C315     C     0.40719      0.74359      0.07149      0
C316     C     0.413        0.73581      0.04299      0
N211     N     0.442        0.72899      0.0378       0
C317     C     0.33801      0.68329      0.06949      0
N212     N     0.3673       0.6768       0.0729       0
C318     C     0.3726       0.6478       0.07541      0
N213     N     0.31179      0.7766       0.08381      0
N214     N     0.3459       0.76521      0.02489      0
N215     N     0.3806       0.75089      0.08429      0
N216     N     0.32479      0.71061      0.06571      0
Zn27     Zn    0.3417       0.7505       0.0656       0
H205     H     0.301        0.80099      0.0488       0
H206     H     0.31949      0.74621      0.13529      0
H207     H     0.39419      0.84871      0.02371      0
H208     H     0.37291      0.7594       0.12711      0
H209     H     0.39831      0.73519      0.02819      0
H210     H     0.3925       0.6416       0.0773       0
C319     C     0.70291      0.20289      0.0689       0
C320     C     0.70119      0.2229       0.11079      0
C321     C     0.69541      0.2392       0.13481      0
N217     N     0.7125       0.2328       0.1581       0
C322     C     0.6394       0.2105       0.01511      0
N218     N     0.6266       0.18899      0.03101      0
C323     C     0.61479      0.16751      0.01401      0
C324     C     0.6127       0.2454       0.11271      0
C325     C     0.5928       0.2564       0.07149      0
C326     C     0.58699      0.2642       0.04299      0
N219     N     0.55801      0.271        0.0378       0
C327     C     0.662        0.3167       0.06949      0
N220     N     0.63269      0.32321      0.0729       0
C328     C     0.62739      0.35219      0.07541      0
N221     N     0.6882       0.22341      0.08381      0
N222     N     0.65411      0.2348       0.02489      0
N223     N     0.61941      0.2491       0.08429      0
N224     N     0.6752       0.28941      0.06571      0
Zn28     Zn    0.65831      0.24949      0.0656       0
H211     H     0.69899      0.199        0.0488       0
H212     H     0.6805       0.2538       0.13529      0
H213     H     0.60579      0.1513       0.02371      0
H214     H     0.6271       0.24061      0.12711      0
H215     H     0.6017       0.2648       0.02819      0
H216     H     0.60751      0.35839      0.0773       0
C329     C     0.93109      0.70291      0.7971       0
C330     C     0.8892       0.70119      0.77711      0
C331     C     0.8652       0.69541      0.76079      0
N225     N     0.84189      0.7125       0.76721      0
C332     C     0.9849       0.6394       0.78951      0
N226     N     0.969        0.6266       0.811        0
C333     C     0.986        0.61479      0.8325       0
C334     C     0.88731      0.6127       0.75461      0
C335     C     0.9285       0.5928       0.74359      0
C336     C     0.957        0.58699      0.73581      0
N227     N     0.96221      0.55801      0.72899      0
C337     C     0.9305       0.662        0.68329      0
N228     N     0.92711      0.63269      0.6768       0
C338     C     0.9246       0.62739      0.6478       0
N229     N     0.9162       0.6882       0.7766       0
N230     N     0.97509      0.65411      0.76521      0
N231     N     0.9157       0.61941      0.75089      0
N232     N     0.9343       0.6752       0.71061      0
Zn29     Zn    0.93441      0.65831      0.7505       0
H217     H     0.95119      0.69899      0.80099      0
H218     H     0.8647       0.6805       0.74621      0
H219     H     0.9763       0.60579      0.84871      0
H220     H     0.8729       0.6271       0.7594       0
H221     H     0.9718       0.6017       0.73519      0
H222     H     0.92269      0.60751      0.6416       0
C339     C     0.93109      0.2971       0.20289      0
C340     C     0.8892       0.2988       0.2229       0
C341     C     0.8652       0.3046       0.2392       0
N233     N     0.84189      0.28749      0.2328       0
C342     C     0.9849       0.36059      0.2105       0
N234     N     0.969        0.37339      0.18899      0
C343     C     0.986        0.3852       0.16751      0
C344     C     0.88731      0.38729      0.2454       0
C345     C     0.9285       0.40719      0.2564       0
C346     C     0.957        0.413        0.2642       0
N235     N     0.96221      0.442        0.271        0
C347     C     0.9305       0.33801      0.3167       0
N236     N     0.92711      0.3673       0.32321      0
C348     C     0.9246       0.3726       0.35219      0
N237     N     0.9162       0.31179      0.22341      0
N238     N     0.97509      0.3459       0.2348       0
N239     N     0.9157       0.3806       0.2491       0
N240     N     0.9343       0.32479      0.28941      0
Zn30     Zn    0.93441      0.3417       0.24949      0
H223     H     0.95119      0.301        0.199        0
H224     H     0.8647       0.31949      0.2538       0
H225     H     0.9763       0.39419      0.1513       0
H226     H     0.8729       0.37291      0.24061      0
H227     H     0.9718       0.39831      0.2648       0
H228     H     0.92269      0.3925       0.35839      0
C349     C     0.0689       0.2971       0.7971       0
C350     C     0.11079      0.2988       0.77711      0
C351     C     0.13481      0.3046       0.76079      0
N241     N     0.1581       0.28749      0.76721      0
C352     C     0.01511      0.36059      0.78951      0
N242     N     0.03101      0.37339      0.811        0
C353     C     0.01401      0.3852       0.8325       0
C354     C     0.11271      0.38729      0.75461      0
C355     C     0.07149      0.40719      0.74359      0
C356     C     0.04299      0.413        0.73581      0
N243     N     0.0378       0.442        0.72899      0
C357     C     0.06949      0.33801      0.68329      0
N244     N     0.0729       0.3673       0.6768       0
C358     C     0.07541      0.3726       0.6478       0
N245     N     0.08381      0.31179      0.7766       0
N246     N     0.02489      0.3459       0.76521      0
N247     N     0.08429      0.3806       0.75089      0
N248     N     0.06571      0.32479      0.71061      0
Zn31     Zn    0.0656       0.3417       0.7505       0
H229     H     0.0488       0.301        0.80099      0
H230     H     0.13529      0.31949      0.74621      0
H231     H     0.02371      0.39419      0.84871      0
H232     H     0.12711      0.37291      0.7594       0
H233     H     0.02819      0.39831      0.73519      0
H234     H     0.0773       0.3925       0.6416       0
C359     C     0.0689       0.70291      0.20289      0
C360     C     0.11079      0.70119      0.2229       0
C361     C     0.13481      0.69541      0.2392       0
N249     N     0.1581       0.7125       0.2328       0
C362     C     0.01511      0.6394       0.2105       0
N250     N     0.03101      0.6266       0.18899      0
C363     C     0.01401      0.61479      0.16751      0
C364     C     0.11271      0.6127       0.2454       0
C365     C     0.07149      0.5928       0.2564       0
C366     C     0.04299      0.58699      0.2642       0
N251     N     0.0378       0.55801      0.271        0
C367     C     0.06949      0.662        0.3167       0
N252     N     0.0729       0.63269      0.32321      0
C368     C     0.07541      0.62739      0.35219      0
N253     N     0.08381      0.6882       0.22341      0
N254     N     0.02489      0.65411      0.2348       0
N255     N     0.08429      0.61941      0.2491       0
N256     N     0.06571      0.6752       0.28941      0
Zn32     Zn    0.0656       0.65831      0.24949      0
H235     H     0.0488       0.69899      0.199        0
H236     H     0.13529      0.6805       0.2538       0
H237     H     0.02371      0.60579      0.1513       0
H238     H     0.12711      0.6271       0.24061      0
H239     H     0.02819      0.6017       0.2648       0
H240     H     0.0773       0.60751      0.35839      0
C369     C     0.7971       0.93109      0.70291      0
C370     C     0.77711      0.8892       0.70119      0
C371     C     0.76079      0.8652       0.69541      0
N257     N     0.76721      0.84189      0.7125       0
C372     C     0.78951      0.9849       0.6394       0
N258     N     0.811        0.969        0.6266       0
C373     C     0.8325       0.986        0.61479      0
C374     C     0.75461      0.88731      0.6127       0
C375     C     0.74359      0.9285       0.5928       0
C376     C     0.73581      0.957        0.58699      0
N259     N     0.72899      0.96221      0.55801      0
C377     C     0.68329      0.9305       0.662        0
N260     N     0.6768       0.92711      0.63269      0
C378     C     0.6478       0.9246       0.62739      0
N261     N     0.7766       0.9162       0.6882       0
N262     N     0.76521      0.97509      0.65411      0
N263     N     0.75089      0.9157       0.61941      0
N264     N     0.71061      0.9343       0.6752       0
Zn33     Zn    0.7505       0.93441      0.65831      0
H241     H     0.80099      0.95119      0.69899      0
H242     H     0.74621      0.8647       0.6805       0
H243     H     0.84871      0.9763       0.60579      0
H244     H     0.7594       0.8729       0.6271       0
H245     H     0.73519      0.9718       0.6017       0
H246     H     0.6416       0.92269      0.60751      0
C379     C     0.20289      0.93109      0.2971       0
C380     C     0.2229       0.8892       0.2988       0
C381     C     0.2392       0.8652       0.3046       0
N265     N     0.2328       0.84189      0.28749      0
C382     C     0.2105       0.9849       0.36059      0
N266     N     0.18899      0.969        0.37339      0
C383     C     0.16751      0.986        0.3852       0
C384     C     0.2454       0.88731      0.38729      0
C385     C     0.2564       0.9285       0.40719      0
C386     C     0.2642       0.957        0.413        0
N267     N     0.271        0.96221      0.442        0
C387     C     0.3167       0.9305       0.33801      0
N268     N     0.32321      0.92711      0.3673       0
C388     C     0.35219      0.9246       0.3726       0
N269     N     0.22341      0.9162       0.31179      0
N270     N     0.2348       0.97509      0.3459       0
N271     N     0.2491       0.9157       0.3806       0
N272     N     0.28941      0.9343       0.32479      0
Zn34     Zn    0.24949      0.93441      0.3417       0
H247     H     0.199        0.95119      0.301        0
H248     H     0.2538       0.8647       0.31949      0
H249     H     0.1513       0.9763       0.39419      0
H250     H     0.24061      0.8729       0.37291      0
H251     H     0.2648       0.9718       0.39831      0
H252     H     0.35839      0.92269      0.3925       0
C389     C     0.7971       0.0689       0.2971       0
C390     C     0.77711      0.11079      0.2988       0
C391     C     0.76079      0.13481      0.3046       0
N273     N     0.76721      0.1581       0.28749      0
C392     C     0.78951      0.01511      0.36059      0
N274     N     0.811        0.03101      0.37339      0
C393     C     0.8325       0.01401      0.3852       0
C394     C     0.75461      0.11271      0.38729      0
C395     C     0.74359      0.07149      0.40719      0
C396     C     0.73581      0.04299      0.413        0
N275     N     0.72899      0.0378       0.442        0
C397     C     0.68329      0.06949      0.33801      0
N276     N     0.6768       0.0729       0.3673       0
C398     C     0.6478       0.07541      0.3726       0
N277     N     0.7766       0.08381      0.31179      0
N278     N     0.76521      0.02489      0.3459       0
N279     N     0.75089      0.08429      0.3806       0
N280     N     0.71061      0.06571      0.32479      0
Zn35     Zn    0.7505       0.0656       0.3417       0
H253     H     0.80099      0.0488       0.301        0
H254     H     0.74621      0.13529      0.31949      0
H255     H     0.84871      0.02371      0.39419      0
H256     H     0.7594       0.12711      0.37291      0
H257     H     0.73519      0.02819      0.39831      0
H258     H     0.6416       0.0773       0.3925       0
C399     C     0.20289      0.0689       0.70291      0
C400     C     0.2229       0.11079      0.70119      0
C401     C     0.2392       0.13481      0.69541      0
N281     N     0.2328       0.1581       0.7125       0
C402     C     0.2105       0.01511      0.6394       0
N282     N     0.18899      0.03101      0.6266       0
C403     C     0.16751      0.01401      0.61479      0
C404     C     0.2454       0.11271      0.6127       0
C405     C     0.2564       0.07149      0.5928       0
C406     C     0.2642       0.04299      0.58699      0
N283     N     0.271        0.0378       0.55801      0
C407     C     0.3167       0.06949      0.662        0
N284     N     0.32321      0.0729       0.63269      0
C408     C     0.35219      0.07541      0.62739      0
N285     N     0.22341      0.08381      0.6882       0
N286     N     0.2348       0.02489      0.65411      0
N287     N     0.2491       0.08429      0.61941      0
N288     N     0.28941      0.06571      0.6752       0
Zn36     Zn    0.24949      0.0656       0.65831      0
H259     H     0.199        0.0488       0.69899      0
H260     H     0.2538       0.13529      0.6805       0
H261     H     0.1513       0.02371      0.60579      0
H262     H     0.24061      0.12711      0.6271       0
H263     H     0.2648       0.02819      0.6017       0
H264     H     0.35839      0.0773       0.60751      0
C409     C     0.7971       0.70291      0.0689       0
C410     C     0.77711      0.70119      0.11079      0
C411     C     0.76079      0.69541      0.13481      0
N289     N     0.76721      0.7125       0.1581       0
C412     C     0.78951      0.6394       0.01511      0
N290     N     0.811        0.6266       0.03101      0
C413     C     0.8325       0.61479      0.01401      0
C414     C     0.75461      0.6127       0.11271      0
C415     C     0.74359      0.5928       0.07149      0
C416     C     0.73581      0.58699      0.04299      0
N291     N     0.72899      0.55801      0.0378       0
C417     C     0.68329      0.662        0.06949      0
N292     N     0.6768       0.63269      0.0729       0
C418     C     0.6478       0.62739      0.07541      0
N293     N     0.7766       0.6882       0.08381      0
N294     N     0.76521      0.65411      0.02489      0
N295     N     0.75089      0.61941      0.08429      0
N296     N     0.71061      0.6752       0.06571      0
Zn37     Zn    0.7505       0.65831      0.0656       0
H265     H     0.80099      0.69899      0.0488       0
H266     H     0.74621      0.6805       0.13529      0
H267     H     0.84871      0.60579      0.02371      0
H268     H     0.7594       0.6271       0.12711      0
H269     H     0.73519      0.6017       0.02819      0
H270     H     0.6416       0.60751      0.0773       0
C419     C     0.20289      0.2971       0.0689       0
C420     C     0.2229       0.2988       0.11079      0
C421     C     0.2392       0.3046       0.13481      0
N297     N     0.2328       0.28749      0.1581       0
C422     C     0.2105       0.36059      0.01511      0
N298     N     0.18899      0.37339      0.03101      0
C423     C     0.16751      0.3852       0.01401      0
C424     C     0.2454       0.38729      0.11271      0
C425     C     0.2564       0.40719      0.07149      0
C426     C     0.2642       0.413        0.04299      0
N299     N     0.271        0.442        0.0378       0
C427     C     0.3167       0.33801      0.06949      0
N300     N     0.32321      0.3673       0.0729       0
C428     C     0.35219      0.3726       0.07541      0
N301     N     0.22341      0.31179      0.08381      0
N302     N     0.2348       0.3459       0.02489      0
N303     N     0.2491       0.3806       0.08429      0
N304     N     0.28941      0.32479      0.06571      0
Zn38     Zn    0.24949      0.3417       0.0656       0
H271     H     0.199        0.301        0.0488       0
H272     H     0.2538       0.31949      0.13529      0
H273     H     0.1513       0.39419      0.02371      0
H274     H     0.24061      0.37291      0.12711      0
H275     H     0.2648       0.39831      0.02819      0
H276     H     0.35839      0.3925       0.0773       0
C429     C     0.7971       0.2971       0.93109      0
C430     C     0.77711      0.2988       0.8892       0
C431     C     0.76079      0.3046       0.8652       0
N305     N     0.76721      0.28749      0.84189      0
C432     C     0.78951      0.36059      0.9849       0
N306     N     0.811        0.37339      0.969        0
C433     C     0.8325       0.3852       0.986        0
C434     C     0.75461      0.38729      0.88731      0
C435     C     0.74359      0.40719      0.9285       0
C436     C     0.73581      0.413        0.957        0
N307     N     0.72899      0.442        0.96221      0
C437     C     0.68329      0.33801      0.9305       0
N308     N     0.6768       0.3673       0.92711      0
C438     C     0.6478       0.3726       0.9246       0
N309     N     0.7766       0.31179      0.9162       0
N310     N     0.76521      0.3459       0.97509      0
N311     N     0.75089      0.3806       0.9157       0
N312     N     0.71061      0.32479      0.9343       0
Zn39     Zn    0.7505       0.3417       0.93441      0
H277     H     0.80099      0.301        0.95119      0
H278     H     0.74621      0.31949      0.8647       0
H279     H     0.84871      0.39419      0.9763       0
H280     H     0.7594       0.37291      0.8729       0
H281     H     0.73519      0.39831      0.9718       0
H282     H     0.6416       0.3925       0.92269      0
C439     C     0.20289      0.70291      0.93109      0
C440     C     0.2229       0.70119      0.8892       0
C441     C     0.2392       0.69541      0.8652       0
N313     N     0.2328       0.7125       0.84189      0
C442     C     0.2105       0.6394       0.9849       0
N314     N     0.18899      0.6266       0.969        0
C443     C     0.16751      0.61479      0.986        0
C444     C     0.2454       0.6127       0.88731      0
C445     C     0.2564       0.5928       0.9285       0
C446     C     0.2642       0.58699      0.957        0
N315     N     0.271        0.55801      0.96221      0
C447     C     0.3167       0.662        0.9305       0
N316     N     0.32321      0.63269      0.92711      0
C448     C     0.35219      0.62739      0.9246       0
N317     N     0.22341      0.6882       0.9162       0
N318     N     0.2348       0.65411      0.97509      0
N319     N     0.2491       0.61941      0.9157       0
N320     N     0.28941      0.6752       0.9343       0
Zn40     Zn    0.24949      0.65831      0.93441      0
H283     H     0.199        0.69899      0.95119      0
H284     H     0.2538       0.6805       0.8647       0
H285     H     0.1513       0.60579      0.9763       0
H286     H     0.24061      0.6271       0.8729       0
H287     H     0.2648       0.6017       0.9718       0
H288     H     0.35839      0.60751      0.92269      0
C449     C     0.70291      0.93109      0.20289      0
C450     C     0.70119      0.8892       0.2229       0
C451     C     0.69541      0.8652       0.2392       0
N321     N     0.7125       0.84189      0.2328       0
C452     C     0.6394       0.9849       0.2105       0
N322     N     0.6266       0.969        0.18899      0
C453     C     0.61479      0.986        0.16751      0
C454     C     0.6127       0.88731      0.2454       0
C455     C     0.5928       0.9285       0.2564       0
C456     C     0.58699      0.957        0.2642       0
N323     N     0.55801      0.96221      0.271        0
C457     C     0.662        0.9305       0.3167       0
N324     N     0.63269      0.92711      0.32321      0
C458     C     0.62739      0.9246       0.35219      0
N325     N     0.6882       0.9162       0.22341      0
N326     N     0.65411      0.97509      0.2348       0
N327     N     0.61941      0.9157       0.2491       0
N328     N     0.6752       0.9343       0.28941      0
Zn41     Zn    0.65831      0.93441      0.24949      0
H289     H     0.69899      0.95119      0.199        0
H290     H     0.6805       0.8647       0.2538       0
H291     H     0.60579      0.9763       0.1513       0
H292     H     0.6271       0.8729       0.24061      0
H293     H     0.6017       0.9718       0.2648       0
H294     H     0.60751      0.92269      0.35839      0
C459     C     0.2971       0.93109      0.7971       0
C460     C     0.2988       0.8892       0.77711      0
C461     C     0.3046       0.8652       0.76079      0
N329     N     0.28749      0.84189      0.76721      0
C462     C     0.36059      0.9849       0.78951      0
N330     N     0.37339      0.969        0.811        0
C463     C     0.3852       0.986        0.8325       0
C464     C     0.38729      0.88731      0.75461      0
C465     C     0.40719      0.9285       0.74359      0
C466     C     0.413        0.957        0.73581      0
N331     N     0.442        0.96221      0.72899      0
C467     C     0.33801      0.9305       0.68329      0
N332     N     0.3673       0.92711      0.6768       0
C468     C     0.3726       0.9246       0.6478       0
N333     N     0.31179      0.9162       0.7766       0
N334     N     0.3459       0.97509      0.76521      0
N335     N     0.3806       0.9157       0.75089      0
N336     N     0.32479      0.9343       0.71061      0
Zn42     Zn    0.3417       0.93441      0.7505       0
H295     H     0.301        0.95119      0.80099      0
H296     H     0.31949      0.8647       0.74621      0
H297     H     0.39419      0.9763       0.84871      0
H298     H     0.37291      0.8729       0.7594       0
H299     H     0.39831      0.9718       0.73519      0
H300     H     0.3925       0.92269      0.6416       0
C469     C     0.2971       0.0689       0.20289      0
C470     C     0.2988       0.11079      0.2229       0
C471     C     0.3046       0.13481      0.2392       0
N337     N     0.28749      0.1581       0.2328       0
C472     C     0.36059      0.01511      0.2105       0
N338     N     0.37339      0.03101      0.18899      0
C473     C     0.3852       0.01401      0.16751      0
C474     C     0.38729      0.11271      0.2454       0
C475     C     0.40719      0.07149      0.2564       0
C476     C     0.413        0.04299      0.2642       0
N339     N     0.442        0.0378       0.271        0
C477     C     0.33801      0.06949      0.3167       0
N340     N     0.3673       0.0729       0.32321      0
C478     C     0.3726       0.07541      0.35219      0
N341     N     0.31179      0.08381      0.22341      0
N342     N     0.3459       0.02489      0.2348       0
N343     N     0.3806       0.08429      0.2491       0
N344     N     0.32479      0.06571      0.28941      0
Zn43     Zn    0.3417       0.0656       0.24949      0
H301     H     0.301        0.0488       0.199        0
H302     H     0.31949      0.13529      0.2538       0
H303     H     0.39419      0.02371      0.1513       0
H304     H     0.37291      0.12711      0.24061      0
H305     H     0.39831      0.02819      0.2648       0
H306     H     0.3925       0.0773       0.35839      0
C479     C     0.70291      0.0689       0.7971       0
C480     C     0.70119      0.11079      0.77711      0
C481     C     0.69541      0.13481      0.76079      0
N345     N     0.7125       0.1581       0.76721      0
C482     C     0.6394       0.01511      0.78951      0
N346     N     0.6266       0.03101      0.811        0
C483     C     0.61479      0.01401      0.8325       0
C484     C     0.6127       0.11271      0.75461      0
C485     C     0.5928       0.07149      0.74359      0
C486     C     0.58699      0.04299      0.73581      0
N347     N     0.55801      0.0378       0.72899      0
C487     C     0.662        0.06949      0.68329      0
N348     N     0.63269      0.0729       0.6768       0
C488     C     0.62739      0.07541      0.6478       0
N349     N     0.6882       0.08381      0.7766       0
N350     N     0.65411      0.02489      0.76521      0
N351     N     0.61941      0.08429      0.75089      0
N352     N     0.6752       0.06571      0.71061      0
Zn44     Zn    0.65831      0.0656       0.7505       0
H307     H     0.69899      0.0488       0.80099      0
H308     H     0.6805       0.13529      0.74621      0
H309     H     0.60579      0.02371      0.84871      0
H310     H     0.6271       0.12711      0.7594       0
H311     H     0.6017       0.02819      0.73519      0
H312     H     0.60751      0.0773       0.6416       0
C489     C     0.93109      0.7971       0.2971       0
C490     C     0.8892       0.77711      0.2988       0
C491     C     0.8652       0.76079      0.3046       0
N353     N     0.84189      0.76721      0.28749      0
C492     C     0.9849       0.78951      0.36059      0
N354     N     0.969        0.811        0.37339      0
C493     C     0.986        0.8325       0.3852       0
C494     C     0.88731      0.75461      0.38729      0
C495     C     0.9285       0.74359      0.40719      0
C496     C     0.957        0.73581      0.413        0
N355     N     0.96221      0.72899      0.442        0
C497     C     0.9305       0.68329      0.33801      0
N356     N     0.92711      0.6768       0.3673       0
C498     C     0.9246       0.6478       0.3726       0
N357     N     0.9162       0.7766       0.31179      0
N358     N     0.97509      0.76521      0.3459       0
N359     N     0.9157       0.75089      0.3806       0
N360     N     0.9343       0.71061      0.32479      0
Zn45     Zn    0.93441      0.7505       0.3417       0
H313     H     0.95119      0.80099      0.301        0
H314     H     0.8647       0.74621      0.31949      0
H315     H     0.9763       0.84871      0.39419      0
H316     H     0.8729       0.7594       0.37291      0
H317     H     0.9718       0.73519      0.39831      0
H318     H     0.92269      0.6416       0.3925       0
C499     C     0.93109      0.20289      0.70291      0
C500     C     0.8892       0.2229       0.70119      0
C501     C     0.8652       0.2392       0.69541      0
N361     N     0.84189      0.2328       0.7125       0
C502     C     0.9849       0.2105       0.6394       0
N362     N     0.969        0.18899      0.6266       0
C503     C     0.986        0.16751      0.61479      0
C504     C     0.88731      0.2454       0.6127       0
C505     C     0.9285       0.2564       0.5928       0
C506     C     0.957        0.2642       0.58699      0
N363     N     0.96221      0.271        0.55801      0
C507     C     0.9305       0.3167       0.662        0
N364     N     0.92711      0.32321      0.63269      0
C508     C     0.9246       0.35219      0.62739      0
N365     N     0.9162       0.22341      0.6882       0
N366     N     0.97509      0.2348       0.65411      0
N367     N     0.9157       0.2491       0.61941      0
N368     N     0.9343       0.28941      0.6752       0
Zn46     Zn    0.93441      0.24949      0.65831      0
H319     H     0.95119      0.199        0.69899      0
H320     H     0.8647       0.2538       0.6805       0
H321     H     0.9763       0.1513       0.60579      0
H322     H     0.8729       0.24061      0.6271       0
H323     H     0.9718       0.2648       0.6017       0
H324     H     0.92269      0.35839      0.60751      0
C509     C     0.0689       0.7971       0.70291      0
C510     C     0.11079      0.77711      0.70119      0
C511     C     0.13481      0.76079      0.69541      0
N369     N     0.1581       0.76721      0.7125       0
C512     C     0.01511      0.78951      0.6394       0
N370     N     0.03101      0.811        0.6266       0
C513     C     0.01401      0.8325       0.61479      0
C514     C     0.11271      0.75461      0.6127       0
C515     C     0.07149      0.74359      0.5928       0
C516     C     0.04299      0.73581      0.58699      0
N371     N     0.0378       0.72899      0.55801      0
C517     C     0.06949      0.68329      0.662        0
N372     N     0.0729       0.6768       0.63269      0
C518     C     0.07541      0.6478       0.62739      0
N373     N     0.08381      0.7766       0.6882       0
N374     N     0.02489      0.76521      0.65411      0
N375     N     0.08429      0.75089      0.61941      0
N376     N     0.06571      0.71061      0.6752       0
Zn47     Zn    0.0656       0.7505       0.65831      0
H325     H     0.0488       0.80099      0.69899      0
H326     H     0.13529      0.74621      0.6805       0
H327     H     0.02371      0.84871      0.60579      0
H328     H     0.12711      0.7594       0.6271       0
H329     H     0.02819      0.73519      0.6017       0
H330     H     0.0773       0.6416       0.60751      0
C519     C     0.0689       0.20289      0.2971       0
C520     C     0.11079      0.2229       0.2988       0
C521     C     0.13481      0.2392       0.3046       0
N377     N     0.1581       0.2328       0.28749      0
C522     C     0.01511      0.2105       0.36059      0
N378     N     0.03101      0.18899      0.37339      0
C523     C     0.01401      0.16751      0.3852       0
C524     C     0.11271      0.2454       0.38729      0
C525     C     0.07149      0.2564       0.40719      0
C526     C     0.04299      0.2642       0.413        0
N379     N     0.0378       0.271        0.442        0
C527     C     0.06949      0.3167       0.33801      0
N380     N     0.0729       0.32321      0.3673       0
C528     C     0.07541      0.35219      0.3726       0
N381     N     0.08381      0.22341      0.31179      0
N382     N     0.02489      0.2348       0.3459       0
N383     N     0.08429      0.2491       0.3806       0
N384     N     0.06571      0.28941      0.32479      0
Zn48     Zn    0.0656       0.24949      0.3417       0
H331     H     0.0488       0.199        0.301        0
H332     H     0.13529      0.2538       0.31949      0
H333     H     0.02371      0.1513       0.39419      0
H334     H     0.12711      0.24061      0.37291      0
H335     H     0.02819      0.2648       0.39831      0
H336     H     0.0773       0.35839      0.3925       0
C529     C     0.2971       0.70291      0.56889      0
C530     C     0.2988       0.7229       0.61081      0
C531     C     0.3046       0.73919      0.6348       0
N385     N     0.28749      0.73279      0.65809      0
C532     C     0.3379       0.74841      0.49999      0
C533     C     0.36059      0.7105       0.5151       0
C534     C     0.37339      0.68901      0.531        0
N386     N     0.3852       0.6675       0.514        0
C535     C     0.38729      0.7454       0.6127       0
C536     C     0.40719      0.75639      0.57151      0
C537     C     0.413        0.7642       0.54301      0
N387     N     0.442        0.77099      0.5378       0
C538     C     0.2962       0.7962       0.56399      0
C539     C     0.33801      0.81669      0.56951      0
C540     C     0.3673       0.8232       0.5729       0
N388     N     0.3726       0.85221      0.5754       0
N389     N     0.31179      0.7234       0.5838       0
N390     N     0.3459       0.7348       0.52491      0
N391     N     0.3806       0.74909      0.58431      0
N392     N     0.32479      0.7894       0.5657       0
Zn49     Zn    0.3417       0.74951      0.56559      0
H337     H     0.301        0.69899      0.54879      0
H338     H     0.31949      0.7538       0.63531      0
H339     H     0.32721      0.76631      0.49999      0
H340     H     0.37401      0.6889       0.55181      0
H341     H     0.37291      0.7406       0.6271       0
H342     H     0.39831      0.76479      0.52821      0
H343     H     0.28151      0.78151      0.56159      0
H344     H     0.3823       0.80871      0.57349      0
C541     C     0.70291      0.2971       0.56889      0
C542     C     0.70119      0.27709      0.61081      0
C543     C     0.69541      0.26079      0.6348       0
N393     N     0.7125       0.26719      0.65809      0
C544     C     0.66209      0.2516       0.49999      0
C545     C     0.6394       0.28949      0.5151       0
C546     C     0.6266       0.311        0.531        0
N394     N     0.61479      0.33251      0.514        0
C547     C     0.6127       0.25459      0.6127       0
C548     C     0.5928       0.2436       0.57151      0
C549     C     0.58699      0.23579      0.54301      0
N395     N     0.55801      0.229        0.5378       0
C550     C     0.70381      0.20379      0.56399      0
C551     C     0.662        0.1833       0.56951      0
C552     C     0.63269      0.17681      0.5729       0
N396     N     0.62739      0.1478       0.5754       0
N397     N     0.6882       0.27661      0.5838       0
N398     N     0.65411      0.26519      0.52491      0
N399     N     0.61941      0.2509       0.58431      0
N400     N     0.6752       0.21061      0.5657       0
Zn50     Zn    0.65831      0.2505       0.56559      0
H345     H     0.69899      0.301        0.54879      0
H346     H     0.6805       0.24619      0.63531      0
H347     H     0.6728       0.2337       0.49999      0
H348     H     0.626        0.31109      0.55181      0
H349     H     0.6271       0.25941      0.6271       0
H350     H     0.6017       0.2352       0.52821      0
H351     H     0.7185       0.21851      0.56159      0
H352     H     0.61769      0.1913       0.57349      0
C553     C     0.70291      0.70291      0.4311       0
C554     C     0.70119      0.7229       0.3892       0
C555     C     0.69541      0.73919      0.36521      0
N401     N     0.7125       0.73279      0.3419       0
C556     C     0.66209      0.74841      0.49999      0
C557     C     0.6394       0.7105       0.48491      0
C558     C     0.6266       0.68901      0.46901      0
N402     N     0.61479      0.6675       0.48601      0
C559     C     0.6127       0.7454       0.38729      0
C560     C     0.5928       0.75639      0.4285       0
C561     C     0.58699      0.7642       0.457        0
N403     N     0.55801      0.77099      0.46219      0
C562     C     0.70381      0.7962       0.436        0
C563     C     0.662        0.81669      0.4305       0
C564     C     0.63269      0.8232       0.42709      0
N404     N     0.62739      0.85221      0.42461      0
N405     N     0.6882       0.7234       0.41621      0
N406     N     0.65411      0.7348       0.4751       0
N407     N     0.61941      0.74909      0.4157       0
N408     N     0.6752       0.7894       0.43431      0
Zn51     Zn    0.65831      0.74951      0.43439      0
H353     H     0.69899      0.69899      0.4512       0
H354     H     0.6805       0.7538       0.3647       0
H355     H     0.6728       0.76631      0.49999      0
H356     H     0.626        0.6889       0.4482       0
H357     H     0.6271       0.7406       0.37291      0
H358     H     0.6017       0.76479      0.4718       0
H359     H     0.7185       0.78151      0.4384       0
H360     H     0.61769      0.80871      0.4265       0
C565     C     0.2971       0.2971       0.4311       0
C566     C     0.2988       0.27709      0.3892       0
C567     C     0.3046       0.26079      0.36521      0
N409     N     0.28749      0.26719      0.3419       0
C568     C     0.3379       0.2516       0.49999      0
C569     C     0.36059      0.28949      0.48491      0
C570     C     0.37339      0.311        0.46901      0
N410     N     0.3852       0.33251      0.48601      0
C571     C     0.38729      0.25459      0.38729      0
C572     C     0.40719      0.2436       0.4285       0
C573     C     0.413        0.23579      0.457        0
N411     N     0.442        0.229        0.46219      0
C574     C     0.2962       0.20379      0.436        0
C575     C     0.33801      0.1833       0.4305       0
C576     C     0.3673       0.17681      0.42709      0
N412     N     0.3726       0.1478       0.42461      0
N413     N     0.31179      0.27661      0.41621      0
N414     N     0.3459       0.26519      0.4751       0
N415     N     0.3806       0.2509       0.4157       0
N416     N     0.32479      0.21061      0.43431      0
Zn52     Zn    0.3417       0.2505       0.43439      0
H361     H     0.301        0.301        0.4512       0
H362     H     0.31949      0.24619      0.3647       0
H363     H     0.32721      0.2337       0.49999      0
H364     H     0.37401      0.31109      0.4482       0
H365     H     0.37291      0.25941      0.37291      0
H366     H     0.39831      0.2352       0.4718       0
H367     H     0.28151      0.21851      0.4384       0
H368     H     0.3823       0.1913       0.4265       0
C577     C     0.11079      0.79879      0.7229       0
N417     N     0.13481      0.8046       0.73919      0
C578     C     0.1581       0.78751      0.73279      0
C579     C     0            0.83789      0.74841      0
C580     C     0.01511      0.86061      0.7105       0
C581     C     0.03101      0.87341      0.68901      0
N418     N     0.01401      0.88519      0.6675       0
C582     C     0.11271      0.88731      0.7454       0
C583     C     0.07149      0.90721      0.75639      0
C584     C     0.04299      0.91299      0.7642       0
N419     N     0.0378       0.942        0.77099      0
C585     C     0.06399      0.7962       0.7962       0
C586     C     0.06949      0.838        0.81669      0
C587     C     0.0729       0.86729      0.8232       0
N420     N     0.07541      0.87259      0.85221      0
N421     N     0.08381      0.81181      0.7234       0
N422     N     0.02489      0.8459       0.7348       0
N423     N     0.08429      0.8806       0.74909      0
N424     N     0.06571      0.82481      0.7894       0
Zn53     Zn    0.0656       0.8417       0.74951      0
H369     H     0.1756       0.7903       0.7437       0
H370     H     0            0.8272       0.76631      0
H371     H     0.05179      0.874        0.6889       0
H372     H     0.12711      0.8729       0.7406       0
H373     H     0.02819      0.8983       0.76479      0
H374     H     0.0616       0.78151      0.78151      0
H375     H     0.07349      0.88229      0.80871      0
C588     C     0.11079      0.2012       0.27709      0
N425     N     0.13481      0.19539      0.26079      0
C589     C     0.1581       0.2125       0.26719      0
C590     C     0            0.1621       0.2516       0
C591     C     0.01511      0.1394       0.28949      0
C592     C     0.03101      0.1266       0.311        0
N426     N     0.01401      0.11479      0.33251      0
C593     C     0.11271      0.11271      0.25459      0
C594     C     0.07149      0.0928       0.2436       0
C595     C     0.04299      0.087        0.23579      0
N427     N     0.0378       0.05799      0.229        0
C596     C     0.06399      0.20379      0.20379      0
C597     C     0.06949      0.16201      0.1833       0
C598     C     0.0729       0.1327       0.17681      0
N428     N     0.07541      0.1274       0.1478       0
N429     N     0.08381      0.1882       0.27661      0
N430     N     0.02489      0.15409      0.26519      0
N431     N     0.08429      0.11939      0.2509       0
N432     N     0.06571      0.1752       0.21061      0
Zn54     Zn    0.0656       0.15829      0.2505       0
H376     H     0.1756       0.20971      0.25631      0
H377     H     0            0.17281      0.2337       0
H378     H     0.05179      0.12601      0.31109      0
H379     H     0.12711      0.12711      0.25941      0
H380     H     0.02819      0.10171      0.2352       0
H381     H     0.0616       0.21851      0.21851      0
H382     H     0.07349      0.1177       0.1913       0
C599     C     0.8892       0.2012       0.7229       0
N433     N     0.8652       0.19539      0.73919      0
C600     C     0.84189      0.2125       0.73279      0
C601     C     0            0.1621       0.74841      0
C602     C     0.9849       0.1394       0.7105       0
C603     C     0.969        0.1266       0.68901      0
N434     N     0.986        0.11479      0.6675       0
C604     C     0.88731      0.11271      0.7454       0
C605     C     0.9285       0.0928       0.75639      0
C606     C     0.957        0.087        0.7642       0
N435     N     0.96221      0.05799      0.77099      0
C607     C     0.93599      0.20379      0.7962       0
C608     C     0.9305       0.16201      0.81669      0
C609     C     0.92711      0.1327       0.8232       0
N436     N     0.9246       0.1274       0.85221      0
N437     N     0.9162       0.1882       0.7234       0
N438     N     0.97509      0.15409      0.7348       0
N439     N     0.9157       0.11939      0.74909      0
N440     N     0.9343       0.1752       0.7894       0
Zn55     Zn    0.93441      0.15829      0.74951      0
H383     H     0.82441      0.20971      0.7437       0
H384     H     0            0.17281      0.76631      0
H385     H     0.9482       0.12601      0.6889       0
H386     H     0.8729       0.12711      0.7406       0
H387     H     0.9718       0.10171      0.76479      0
H388     H     0.93839      0.21851      0.78151      0
H389     H     0.92649      0.1177       0.80871      0
C610     C     0.8892       0.79879      0.27709      0
N441     N     0.8652       0.8046       0.26079      0
C611     C     0.84189      0.78751      0.26719      0
C612     C     0            0.83789      0.2516       0
C613     C     0.9849       0.86061      0.28949      0
C614     C     0.969        0.87341      0.311        0
N442     N     0.986        0.88519      0.33251      0
C615     C     0.88731      0.88731      0.25459      0
C616     C     0.9285       0.90721      0.2436       0
C617     C     0.957        0.91299      0.23579      0
N443     N     0.96221      0.942        0.229        0
C618     C     0.93599      0.7962       0.20379      0
C619     C     0.9305       0.838        0.1833       0
C620     C     0.92711      0.86729      0.17681      0
N444     N     0.9246       0.87259      0.1478       0
N445     N     0.9162       0.81181      0.27661      0
N446     N     0.97509      0.8459       0.26519      0
N447     N     0.9157       0.8806       0.2509       0
N448     N     0.9343       0.82481      0.21061      0
Zn56     Zn    0.93441      0.8417       0.2505       0
H390     H     0.82441      0.7903       0.25631      0
H391     H     0            0.8272       0.2337       0
H392     H     0.9482       0.874        0.31109      0
H393     H     0.8729       0.8729       0.25941      0
H394     H     0.9718       0.8983       0.2352       0
H395     H     0.93839      0.78151      0.21851      0
H396     H     0.92649      0.88229      0.1913       0
C621     C     0.20289      0.56889      0.7971       0
C622     C     0.2229       0.61081      0.79879      0
C623     C     0.2392       0.6348       0.8046       0
N449     N     0.2328       0.65809      0.78751      0
C624     C     0.24839      0.49999      0.83789      0
C625     C     0.2105       0.5151       0.86061      0
C626     C     0.18899      0.531        0.87341      0
N450     N     0.16751      0.514        0.88519      0
C627     C     0.2564       0.57151      0.90721      0
N451     N     0.2642       0.54301      0.91299      0
C628     C     0.271        0.5378       0.942        0
C629     C     0.2962       0.56399      0.7962       0
C630     C     0.3167       0.56951      0.838        0
C631     C     0.32321      0.5729       0.86729      0
N452     N     0.35219      0.5754       0.87259      0
N453     N     0.22341      0.5838       0.81181      0
N454     N     0.2348       0.52491      0.8459       0
N455     N     0.2491       0.58431      0.8806       0
N456     N     0.28941      0.5657       0.82481      0
Zn57     Zn    0.24949      0.56559      0.8417       0
H397     H     0.199        0.54879      0.80099      0
H398     H     0.2538       0.63531      0.81951      0
H399     H     0.26629      0.49999      0.8272       0
H400     H     0.18891      0.55181      0.874        0
H401     H     0.27599      0.51829      0.94761      0
H402     H     0.28151      0.56159      0.78151      0
H403     H     0.30869      0.57349      0.88229      0
C632     C     0.7971       0.56889      0.20289      0
C633     C     0.77711      0.61081      0.2012       0
C634     C     0.76079      0.6348       0.19539      0
N457     N     0.76721      0.65809      0.2125       0
C635     C     0.7516       0.49999      0.1621       0
C636     C     0.78951      0.5151       0.1394       0
C637     C     0.811        0.531        0.1266       0
N458     N     0.8325       0.514        0.11479      0
C638     C     0.74359      0.57151      0.0928       0
N459     N     0.73581      0.54301      0.087        0
C639     C     0.72899      0.5378       0.05799      0
C640     C     0.70381      0.56399      0.20379      0
C641     C     0.68329      0.56951      0.16201      0
C642     C     0.6768       0.5729       0.1327       0
N460     N     0.6478       0.5754       0.1274       0
N461     N     0.7766       0.5838       0.1882       0
N462     N     0.76521      0.52491      0.15409      0
N463     N     0.75089      0.58431      0.11939      0
N464     N     0.71061      0.5657       0.1752       0
Zn58     Zn    0.7505       0.56559      0.15829      0
H404     H     0.80099      0.54879      0.199        0
H405     H     0.74621      0.63531      0.1805       0
H406     H     0.7337       0.49999      0.17281      0
H407     H     0.81111      0.55181      0.12601      0
H408     H     0.724        0.51829      0.05241      0
H409     H     0.7185       0.56159      0.21851      0
H410     H     0.6913       0.57349      0.1177       0
C643     C     0.20289      0.4311       0.20289      0
C644     C     0.2229       0.3892       0.2012       0
C645     C     0.2392       0.36521      0.19539      0
N465     N     0.2328       0.3419       0.2125       0
C646     C     0.24839      0.49999      0.1621       0
C647     C     0.2105       0.48491      0.1394       0
C648     C     0.18899      0.46901      0.1266       0
N466     N     0.16751      0.48601      0.11479      0
C649     C     0.2564       0.4285       0.0928       0
N467     N     0.2642       0.457        0.087        0
C650     C     0.271        0.46219      0.05799      0
C651     C     0.2962       0.436        0.20379      0
C652     C     0.3167       0.4305       0.16201      0
C653     C     0.32321      0.42709      0.1327       0
N468     N     0.35219      0.42461      0.1274       0
N469     N     0.22341      0.41621      0.1882       0
N470     N     0.2348       0.4751       0.15409      0
N471     N     0.2491       0.4157       0.11939      0
N472     N     0.28941      0.43431      0.1752       0
Zn59     Zn    0.24949      0.43439      0.15829      0
H411     H     0.199        0.4512       0.199        0
H412     H     0.2538       0.3647       0.1805       0
H413     H     0.26629      0.49999      0.17281      0
H414     H     0.18891      0.4482       0.12601      0
H415     H     0.27599      0.4817       0.05241      0
H416     H     0.28151      0.4384       0.21851      0
H417     H     0.30869      0.4265       0.1177       0
C654     C     0.7971       0.4311       0.7971       0
C655     C     0.77711      0.3892       0.79879      0
C656     C     0.76079      0.36521      0.8046       0
N473     N     0.76721      0.3419       0.78751      0
C657     C     0.7516       0.49999      0.83789      0
C658     C     0.78951      0.48491      0.86061      0
C659     C     0.811        0.46901      0.87341      0
N474     N     0.8325       0.48601      0.88519      0
C660     C     0.74359      0.4285       0.90721      0
N475     N     0.73581      0.457        0.91299      0
C661     C     0.72899      0.46219      0.942        0
C662     C     0.70381      0.436        0.7962       0
C663     C     0.68329      0.4305       0.838        0
C664     C     0.6768       0.42709      0.86729      0
N476     N     0.6478       0.42461      0.87259      0
N477     N     0.7766       0.41621      0.81181      0
N478     N     0.76521      0.4751       0.8459       0
N479     N     0.75089      0.4157       0.8806       0
N480     N     0.71061      0.43431      0.82481      0
Zn60     Zn    0.7505       0.43439      0.8417       0
H418     H     0.80099      0.4512       0.80099      0
H419     H     0.74621      0.3647       0.81951      0
H420     H     0.7337       0.49999      0.8272       0
H421     H     0.81111      0.4482       0.874        0
H422     H     0.724        0.4817       0.94761      0
H423     H     0.7185       0.4384       0.78151      0
H424     H     0.6913       0.4265       0.88229      0
C665     C     0.20289      0.7971       0.4311       0
C666     C     0.2229       0.79879      0.3892       0
C667     C     0.2392       0.8046       0.36521      0
N481     N     0.2328       0.78751      0.3419       0
C668     C     0.24839      0.83789      0.49999      0
C669     C     0.2105       0.86061      0.48491      0
C670     C     0.18899      0.87341      0.46901      0
N482     N     0.16751      0.88519      0.48601      0
C671     C     0.2564       0.90721      0.4285       0
N483     N     0.2642       0.91299      0.457        0
C672     C     0.271        0.942        0.46219      0
C673     C     0.2962       0.7962       0.436        0
C674     C     0.3167       0.838        0.4305       0
C675     C     0.32321      0.86729      0.42709      0
N484     N     0.35219      0.87259      0.42461      0
N485     N     0.22341      0.81181      0.41621      0
N486     N     0.2348       0.8459       0.4751       0
N487     N     0.2491       0.8806       0.4157       0
N488     N     0.28941      0.82481      0.43431      0
Zn61     Zn    0.24949      0.8417       0.43439      0
H425     H     0.199        0.80099      0.4512       0
H426     H     0.2538       0.81951      0.3647       0
H427     H     0.26629      0.8272       0.49999      0
H428     H     0.18891      0.874        0.4482       0
H429     H     0.27599      0.94761      0.4817       0
H430     H     0.28151      0.78151      0.4384       0
H431     H     0.30869      0.88229      0.4265       0
C676     C     0.7971       0.20289      0.4311       0
C677     C     0.77711      0.2012       0.3892       0
C678     C     0.76079      0.19539      0.36521      0
N489     N     0.76721      0.2125       0.3419       0
C679     C     0.7516       0.1621       0.49999      0
C680     C     0.78951      0.1394       0.48491      0
C681     C     0.811        0.1266       0.46901      0
N490     N     0.8325       0.11479      0.48601      0
C682     C     0.74359      0.0928       0.4285       0
N491     N     0.73581      0.087        0.457        0
C683     C     0.72899      0.05799      0.46219      0
C684     C     0.70381      0.20379      0.436        0
C685     C     0.68329      0.16201      0.4305       0
C686     C     0.6768       0.1327       0.42709      0
N492     N     0.6478       0.1274       0.42461      0
N493     N     0.7766       0.1882       0.41621      0
N494     N     0.76521      0.15409      0.4751       0
N495     N     0.75089      0.11939      0.4157       0
N496     N     0.71061      0.1752       0.43431      0
Zn62     Zn    0.7505       0.15829      0.43439      0
H432     H     0.80099      0.199        0.4512       0
H433     H     0.74621      0.1805       0.3647       0
H434     H     0.7337       0.17281      0.49999      0
H435     H     0.81111      0.12601      0.4482       0
H436     H     0.724        0.05241      0.4817       0
H437     H     0.7185       0.21851      0.4384       0
H438     H     0.6913       0.1177       0.4265       0
C687     C     0.20289      0.20289      0.56889      0
C688     C     0.2229       0.2012       0.61081      0
C689     C     0.2392       0.19539      0.6348       0
N497     N     0.2328       0.2125       0.65809      0
C690     C     0.24839      0.1621       0.49999      0
C691     C     0.2105       0.1394       0.5151       0
C692     C     0.18899      0.1266       0.531        0
N498     N     0.16751      0.11479      0.514        0
C693     C     0.2564       0.0928       0.57151      0
N499     N     0.2642       0.087        0.54301      0
C694     C     0.271        0.05799      0.5378       0
C695     C     0.2962       0.20379      0.56399      0
C696     C     0.3167       0.16201      0.56951      0
C697     C     0.32321      0.1327       0.5729       0
N500     N     0.35219      0.1274       0.5754       0
N501     N     0.22341      0.1882       0.5838       0
N502     N     0.2348       0.15409      0.52491      0
N503     N     0.2491       0.11939      0.58431      0
N504     N     0.28941      0.1752       0.5657       0
Zn63     Zn    0.24949      0.15829      0.56559      0
H439     H     0.199        0.199        0.54879      0
H440     H     0.2538       0.1805       0.63531      0
H441     H     0.26629      0.17281      0.49999      0
H442     H     0.18891      0.12601      0.55181      0
H443     H     0.27599      0.05241      0.51829      0
H444     H     0.28151      0.21851      0.56159      0
H445     H     0.30869      0.1177       0.57349      0
C698     C     0.7971       0.7971       0.56889      0
C699     C     0.77711      0.79879      0.61081      0
C700     C     0.76079      0.8046       0.6348       0
N505     N     0.76721      0.78751      0.65809      0
C701     C     0.7516       0.83789      0.49999      0
C702     C     0.78951      0.86061      0.5151       0
C703     C     0.811        0.87341      0.531        0
N506     N     0.8325       0.88519      0.514        0
C704     C     0.74359      0.90721      0.57151      0
N507     N     0.73581      0.91299      0.54301      0
C705     C     0.72899      0.942        0.5378       0
C706     C     0.70381      0.7962       0.56399      0
C707     C     0.68329      0.838        0.56951      0
C708     C     0.6768       0.86729      0.5729       0
N508     N     0.6478       0.87259      0.5754       0
N509     N     0.7766       0.81181      0.5838       0
N510     N     0.76521      0.8459       0.52491      0
N511     N     0.75089      0.8806       0.58431      0
N512     N     0.71061      0.82481      0.5657       0
Zn64     Zn    0.7505       0.8417       0.56559      0
H446     H     0.80099      0.80099      0.54879      0
H447     H     0.74621      0.81951      0.63531      0
H448     H     0.7337       0.8272       0.49999      0
H449     H     0.81111      0.874        0.55181      0
H450     H     0.724        0.94761      0.51829      0
H451     H     0.7185       0.78151      0.56159      0
H452     H     0.6913       0.88229      0.57349      0
C709     C     0.2971       0.56889      0.2971       0
C710     C     0.2988       0.61081      0.27709      0
C711     C     0.3046       0.6348       0.26079      0
N513     N     0.28749      0.65809      0.26719      0
C712     C     0.3379       0.49999      0.2516       0
C713     C     0.36059      0.5151       0.28949      0
C714     C     0.37339      0.531        0.311        0
N514     N     0.3852       0.514        0.33251      0
C715     C     0.38729      0.6127       0.25459      0
C716     C     0.40719      0.57151      0.2436       0
C717     C     0.413        0.54301      0.23579      0
N515     N     0.442        0.5378       0.229        0
C718     C     0.2962       0.56399      0.20379      0
C719     C     0.33801      0.56951      0.1833       0
C720     C     0.3673       0.5729       0.17681      0
N516     N     0.3726       0.5754       0.1478       0
N517     N     0.31179      0.5838       0.27661      0
N518     N     0.3459       0.52491      0.26519      0
N519     N     0.3806       0.58431      0.2509       0
N520     N     0.32479      0.5657       0.21061      0
Zn65     Zn    0.3417       0.56559      0.2505       0
H453     H     0.301        0.54879      0.301        0
H454     H     0.31949      0.63531      0.24619      0
H455     H     0.32721      0.49999      0.2337       0
H456     H     0.37401      0.55181      0.31109      0
H457     H     0.37291      0.6271       0.25941      0
H458     H     0.39831      0.52821      0.2352       0
H459     H     0.28151      0.56159      0.21851      0
H460     H     0.3823       0.57349      0.1913       0
C721     C     0.70291      0.56889      0.70291      0
C722     C     0.70119      0.61081      0.7229       0
C723     C     0.69541      0.6348       0.73919      0
N521     N     0.7125       0.65809      0.73279      0
C724     C     0.66209      0.49999      0.74841      0
C725     C     0.6394       0.5151       0.7105       0
C726     C     0.6266       0.531        0.68901      0
N522     N     0.61479      0.514        0.6675       0
C727     C     0.6127       0.6127       0.7454       0
C728     C     0.5928       0.57151      0.75639      0
C729     C     0.58699      0.54301      0.7642       0
N523     N     0.55801      0.5378       0.77099      0
C730     C     0.70381      0.56399      0.7962       0
C731     C     0.662        0.56951      0.81669      0
C732     C     0.63269      0.5729       0.8232       0
N524     N     0.62739      0.5754       0.85221      0
N525     N     0.6882       0.5838       0.7234       0
N526     N     0.65411      0.52491      0.7348       0
N527     N     0.61941      0.58431      0.74909      0
N528     N     0.6752       0.5657       0.7894       0
Zn66     Zn    0.65831      0.56559      0.74951      0
H461     H     0.69899      0.54879      0.69899      0
H462     H     0.6805       0.63531      0.7538       0
H463     H     0.6728       0.49999      0.76631      0
H464     H     0.626        0.55181      0.6889       0
H465     H     0.6271       0.6271       0.7406       0
H466     H     0.6017       0.52821      0.76479      0
H467     H     0.7185       0.56159      0.78151      0
H468     H     0.61769      0.57349      0.80871      0
C733     C     0.70291      0.4311       0.2971       0
C734     C     0.70119      0.3892       0.27709      0
C735     C     0.69541      0.36521      0.26079      0
N529     N     0.7125       0.3419       0.26719      0
C736     C     0.66209      0.49999      0.2516       0
C737     C     0.6394       0.48491      0.28949      0
C738     C     0.6266       0.46901      0.311        0
N530     N     0.61479      0.48601      0.33251      0
C739     C     0.6127       0.38729      0.25459      0
C740     C     0.5928       0.4285       0.2436       0
C741     C     0.58699      0.457        0.23579      0
N531     N     0.55801      0.46219      0.229        0
C742     C     0.70381      0.436        0.20379      0
C743     C     0.662        0.4305       0.1833       0
C744     C     0.63269      0.42709      0.17681      0
N532     N     0.62739      0.42461      0.1478       0
N533     N     0.6882       0.41621      0.27661      0
N534     N     0.65411      0.4751       0.26519      0
N535     N     0.61941      0.4157       0.2509       0
N536     N     0.6752       0.43431      0.21061      0
Zn67     Zn    0.65831      0.43439      0.2505       0
H469     H     0.69899      0.4512       0.301        0
H470     H     0.6805       0.3647       0.24619      0
H471     H     0.6728       0.49999      0.2337       0
H472     H     0.626        0.4482       0.31109      0
H473     H     0.6271       0.37291      0.25941      0
H474     H     0.6017       0.4718       0.2352       0
H475     H     0.7185       0.4384       0.21851      0
H476     H     0.61769      0.4265       0.1913       0
C745     C     0.2971       0.4311       0.70291      0
C746     C     0.2988       0.3892       0.7229       0
C747     C     0.3046       0.36521      0.73919      0
N537     N     0.28749      0.3419       0.73279      0
C748     C     0.3379       0.49999      0.74841      0
C749     C     0.36059      0.48491      0.7105       0
C750     C     0.37339      0.46901      0.68901      0
N538     N     0.3852       0.48601      0.6675       0
C751     C     0.38729      0.38729      0.7454       0
C752     C     0.40719      0.4285       0.75639      0
C753     C     0.413        0.457        0.7642       0
N539     N     0.442        0.46219      0.77099      0
C754     C     0.2962       0.436        0.7962       0
C755     C     0.33801      0.4305       0.81669      0
C756     C     0.3673       0.42709      0.8232       0
N540     N     0.3726       0.42461      0.85221      0
N541     N     0.31179      0.41621      0.7234       0
N542     N     0.3459       0.4751       0.7348       0
N543     N     0.3806       0.4157       0.74909      0
N544     N     0.32479      0.43431      0.7894       0
Zn68     Zn    0.3417       0.43439      0.74951      0
H477     H     0.301        0.4512       0.69899      0
H478     H     0.31949      0.3647       0.7538       0
H479     H     0.32721      0.49999      0.76631      0
H480     H     0.37401      0.4482       0.6889       0
H481     H     0.37291      0.37291      0.7406       0
H482     H     0.39831      0.4718       0.76479      0
H483     H     0.28151      0.4384       0.78151      0
H484     H     0.3823       0.4265       0.80871      0
C757     C     0.11079      0.7229       0.2012       0
N545     N     0.13481      0.73919      0.19539      0
C758     C     0.1581       0.73279      0.2125       0
C759     C     0            0.74841      0.1621       0
C760     C     0.01511      0.7105       0.1394       0
C761     C     0.03101      0.68901      0.1266       0
N546     N     0.01401      0.6675       0.11479      0
C762     C     0.11271      0.7454       0.11271      0
C763     C     0.07149      0.75639      0.0928       0
C764     C     0.04299      0.7642       0.087        0
N547     N     0.0378       0.77099      0.05799      0
C765     C     0.06399      0.7962       0.20379      0
C766     C     0.06949      0.81669      0.16201      0
C767     C     0.0729       0.8232       0.1327       0
N548     N     0.07541      0.85221      0.1274       0
N549     N     0.08381      0.7234       0.1882       0
N550     N     0.02489      0.7348       0.15409      0
N551     N     0.08429      0.74909      0.11939      0
N552     N     0.06571      0.7894       0.1752       0
Zn69     Zn    0.0656       0.74951      0.15829      0
H485     H     0.1756       0.7437       0.20971      0
H486     H     0            0.76631      0.17281      0
H487     H     0.05179      0.6889       0.12601      0
H488     H     0.12711      0.7406       0.12711      0
H489     H     0.02819      0.76479      0.10171      0
H490     H     0.0616       0.78151      0.21851      0
H491     H     0.07349      0.80871      0.1177       0
C768     C     0.11079      0.27709      0.79879      0
N553     N     0.13481      0.26079      0.8046       0
C769     C     0.1581       0.26719      0.78751      0
C770     C     0            0.2516       0.83789      0
C771     C     0.01511      0.28949      0.86061      0
C772     C     0.03101      0.311        0.87341      0
N554     N     0.01401      0.33251      0.88519      0
C773     C     0.11271      0.25459      0.88731      0
C774     C     0.07149      0.2436       0.90721      0
C775     C     0.04299      0.23579      0.91299      0
N555     N     0.0378       0.229        0.942        0
C776     C     0.06399      0.20379      0.7962       0
C777     C     0.06949      0.1833       0.838        0
C778     C     0.0729       0.17681      0.86729      0
N556     N     0.07541      0.1478       0.87259      0
N557     N     0.08381      0.27661      0.81181      0
N558     N     0.02489      0.26519      0.8459       0
N559     N     0.08429      0.2509       0.8806       0
N560     N     0.06571      0.21061      0.82481      0
Zn70     Zn    0.0656       0.2505       0.8417       0
H492     H     0.1756       0.25631      0.7903       0
H493     H     0            0.2337       0.8272       0
H494     H     0.05179      0.31109      0.874        0
H495     H     0.12711      0.25941      0.8729       0
H496     H     0.02819      0.2352       0.8983       0
H497     H     0.0616       0.21851      0.78151      0
H498     H     0.07349      0.1913       0.88229      0
C779     C     0.8892       0.7229       0.79879      0
N561     N     0.8652       0.73919      0.8046       0
C780     C     0.84189      0.73279      0.78751      0
C781     C     0            0.74841      0.83789      0
C782     C     0.9849       0.7105       0.86061      0
C783     C     0.969        0.68901      0.87341      0
N562     N     0.986        0.6675       0.88519      0
C784     C     0.88731      0.7454       0.88731      0
C785     C     0.9285       0.75639      0.90721      0
C786     C     0.957        0.7642       0.91299      0
N563     N     0.96221      0.77099      0.942        0
C787     C     0.93599      0.7962       0.7962       0
C788     C     0.9305       0.81669      0.838        0
C789     C     0.92711      0.8232       0.86729      0
N564     N     0.9246       0.85221      0.87259      0
N565     N     0.9162       0.7234       0.81181      0
N566     N     0.97509      0.7348       0.8459       0
N567     N     0.9157       0.74909      0.8806       0
N568     N     0.9343       0.7894       0.82481      0
Zn71     Zn    0.93441      0.74951      0.8417       0
H499     H     0.82441      0.7437       0.7903       0
H500     H     0            0.76631      0.8272       0
H501     H     0.9482       0.6889       0.874        0
H502     H     0.8729       0.7406       0.8729       0
H503     H     0.9718       0.76479      0.8983       0
H504     H     0.93839      0.78151      0.78151      0
H505     H     0.92649      0.80871      0.88229      0
C790     C     0.8892       0.27709      0.2012       0
N569     N     0.8652       0.26079      0.19539      0
C791     C     0.84189      0.26719      0.2125       0
C792     C     0            0.2516       0.1621       0
C793     C     0.9849       0.28949      0.1394       0
C794     C     0.969        0.311        0.1266       0
N570     N     0.986        0.33251      0.11479      0
C795     C     0.88731      0.25459      0.11271      0
C796     C     0.9285       0.2436       0.0928       0
C797     C     0.957        0.23579      0.087        0
N571     N     0.96221      0.229        0.05799      0
C798     C     0.93599      0.20379      0.20379      0
C799     C     0.9305       0.1833       0.16201      0
C800     C     0.92711      0.17681      0.1327       0
N572     N     0.9246       0.1478       0.1274       0
N573     N     0.9162       0.27661      0.1882       0
N574     N     0.97509      0.26519      0.15409      0
N575     N     0.9157       0.2509       0.11939      0
N576     N     0.9343       0.21061      0.1752       0
Zn72     Zn    0.93441      0.2505       0.15829      0
H506     H     0.82441      0.25631      0.20971      0
H507     H     0            0.2337       0.17281      0
H508     H     0.9482       0.31109      0.12601      0
H509     H     0.8729       0.25941      0.12711      0
H510     H     0.9718       0.2352       0.10171      0
H511     H     0.93839      0.21851      0.21851      0
H512     H     0.92649      0.1913       0.1177       0
C801     C     0.70291      0.2971       0.4311       0
C802     C     0.70119      0.27709      0.3892       0
C803     C     0.69541      0.26079      0.36521      0
N577     N     0.7125       0.26719      0.3419       0
C804     C     0.6394       0.28949      0.48491      0
N578     N     0.6266       0.311        0.46901      0
C805     C     0.61479      0.33251      0.48601      0
C806     C     0.6127       0.25459      0.38729      0
C807     C     0.5928       0.2436       0.4285       0
C808     C     0.58699      0.23579      0.457        0
N579     N     0.55801      0.229        0.46219      0
C809     C     0.662        0.1833       0.4305       0
N580     N     0.63269      0.17681      0.42709      0
C810     C     0.62739      0.1478       0.42461      0
N581     N     0.6882       0.27661      0.41621      0
N582     N     0.65411      0.26519      0.4751       0
N583     N     0.61941      0.2509       0.4157       0
N584     N     0.6752       0.21061      0.43431      0
Zn73     Zn    0.65831      0.2505       0.43439      0
H513     H     0.69899      0.301        0.4512       0
H514     H     0.6805       0.24619      0.3647       0
H515     H     0.60579      0.34869      0.47631      0
H516     H     0.6271       0.25941      0.37291      0
H517     H     0.6017       0.2352       0.4718       0
H518     H     0.60751      0.1416       0.4227       0
C811     C     0.2971       0.70291      0.4311       0
C812     C     0.2988       0.7229       0.3892       0
C813     C     0.3046       0.73919      0.36521      0
N585     N     0.28749      0.73279      0.3419       0
C814     C     0.36059      0.7105       0.48491      0
N586     N     0.37339      0.68901      0.46901      0
C815     C     0.3852       0.6675       0.48601      0
C816     C     0.38729      0.7454       0.38729      0
C817     C     0.40719      0.75639      0.4285       0
C818     C     0.413        0.7642       0.457        0
N587     N     0.442        0.77099      0.46219      0
C819     C     0.33801      0.81669      0.4305       0
N588     N     0.3673       0.8232       0.42709      0
C820     C     0.3726       0.85221      0.42461      0
N589     N     0.31179      0.7234       0.41621      0
N590     N     0.3459       0.7348       0.4751       0
N591     N     0.3806       0.74909      0.4157       0
N592     N     0.32479      0.7894       0.43431      0
Zn74     Zn    0.3417       0.74951      0.43439      0
H519     H     0.301        0.69899      0.4512       0
H520     H     0.31949      0.7538       0.3647       0
H521     H     0.39419      0.65129      0.47631      0
H522     H     0.37291      0.7406       0.37291      0
H523     H     0.39831      0.76479      0.4718       0
H524     H     0.3925       0.85841      0.4227       0
C821     C     0.2971       0.2971       0.56889      0
C822     C     0.2988       0.27709      0.61081      0
C823     C     0.3046       0.26079      0.6348       0
N593     N     0.28749      0.26719      0.65809      0
C824     C     0.36059      0.28949      0.5151       0
N594     N     0.37339      0.311        0.531        0
C825     C     0.3852       0.33251      0.514        0
C826     C     0.38729      0.25459      0.6127       0
C827     C     0.40719      0.2436       0.57151      0
C828     C     0.413        0.23579      0.54301      0
N595     N     0.442        0.229        0.5378       0
C829     C     0.33801      0.1833       0.56951      0
N596     N     0.3673       0.17681      0.5729       0
C830     C     0.3726       0.1478       0.5754       0
N597     N     0.31179      0.27661      0.5838       0
N598     N     0.3459       0.26519      0.52491      0
N599     N     0.3806       0.2509       0.58431      0
N600     N     0.32479      0.21061      0.5657       0
Zn75     Zn    0.3417       0.2505       0.56559      0
H525     H     0.301        0.301        0.54879      0
H526     H     0.31949      0.24619      0.63531      0
H527     H     0.39419      0.34869      0.5237       0
H528     H     0.37291      0.25941      0.6271       0
H529     H     0.39831      0.2352       0.52821      0
H530     H     0.3925       0.1416       0.57729      0
C831     C     0.70291      0.70291      0.56889      0
C832     C     0.70119      0.7229       0.61081      0
C833     C     0.69541      0.73919      0.6348       0
N601     N     0.7125       0.73279      0.65809      0
C834     C     0.6394       0.7105       0.5151       0
N602     N     0.6266       0.68901      0.531        0
C835     C     0.61479      0.6675       0.514        0
C836     C     0.6127       0.7454       0.6127       0
C837     C     0.5928       0.75639      0.57151      0
C838     C     0.58699      0.7642       0.54301      0
N603     N     0.55801      0.77099      0.5378       0
C839     C     0.662        0.81669      0.56951      0
N604     N     0.63269      0.8232       0.5729       0
C840     C     0.62739      0.85221      0.5754       0
N605     N     0.6882       0.7234       0.5838       0
N606     N     0.65411      0.7348       0.52491      0
N607     N     0.61941      0.74909      0.58431      0
N608     N     0.6752       0.7894       0.5657       0
Zn76     Zn    0.65831      0.74951      0.56559      0
H531     H     0.69899      0.69899      0.54879      0
H532     H     0.6805       0.7538       0.63531      0
H533     H     0.60579      0.65129      0.5237       0
H534     H     0.6271       0.7406       0.6271       0
H535     H     0.6017       0.76479      0.52821      0
H536     H     0.60751      0.85841      0.57729      0
C841     C     0.8892       0.2012       0.27709      0
N609     N     0.8652       0.19539      0.26079      0
C842     C     0.84189      0.2125       0.26719      0
C843     C     0.9849       0.1394       0.28949      0
N610     N     0.969        0.1266       0.311        0
C844     C     0.986        0.11479      0.33251      0
C845     C     0.88731      0.11271      0.25459      0
C846     C     0.9285       0.0928       0.2436       0
C847     C     0.957        0.087        0.23579      0
N611     N     0.96221      0.05799      0.229        0
C848     C     0.9305       0.16201      0.1833       0
N612     N     0.92711      0.1327       0.17681      0
C849     C     0.9246       0.1274       0.1478       0
N613     N     0.9162       0.1882       0.27661      0
N614     N     0.97509      0.15409      0.26519      0
N615     N     0.9157       0.11939      0.2509       0
N616     N     0.9343       0.1752       0.21061      0
Zn77     Zn    0.93441      0.15829      0.2505       0
H537     H     0.82441      0.20971      0.25631      0
H538     H     0.9763       0.1058       0.34869      0
H539     H     0.8729       0.12711      0.25941      0
H540     H     0.9718       0.10171      0.2352       0
H541     H     0.92269      0.10749      0.1416       0
C850     C     0.8892       0.79879      0.7229       0
N617     N     0.8652       0.8046       0.73919      0
C851     C     0.84189      0.78751      0.73279      0
C852     C     0.9849       0.86061      0.7105       0
N618     N     0.969        0.87341      0.68901      0
C853     C     0.986        0.88519      0.6675       0
C854     C     0.88731      0.88731      0.7454       0
C855     C     0.9285       0.90721      0.75639      0
C856     C     0.957        0.91299      0.7642       0
N619     N     0.96221      0.942        0.77099      0
C857     C     0.9305       0.838        0.81669      0
N620     N     0.92711      0.86729      0.8232       0
C858     C     0.9246       0.87259      0.85221      0
N621     N     0.9162       0.81181      0.7234       0
N622     N     0.97509      0.8459       0.7348       0
N623     N     0.9157       0.8806       0.74909      0
N624     N     0.9343       0.82481      0.7894       0
Zn78     Zn    0.93441      0.8417       0.74951      0
H542     H     0.82441      0.7903       0.7437       0
H543     H     0.9763       0.89421      0.65129      0
H544     H     0.8729       0.8729       0.7406       0
H545     H     0.9718       0.8983       0.76479      0
H546     H     0.92269      0.8925       0.85841      0
C859     C     0.11079      0.79879      0.27709      0
N625     N     0.13481      0.8046       0.26079      0
C860     C     0.1581       0.78751      0.26719      0
C861     C     0.01511      0.86061      0.28949      0
N626     N     0.03101      0.87341      0.311        0
C862     C     0.01401      0.88519      0.33251      0
C863     C     0.11271      0.88731      0.25459      0
C864     C     0.07149      0.90721      0.2436       0
C865     C     0.04299      0.91299      0.23579      0
N627     N     0.0378       0.942        0.229        0
C866     C     0.06949      0.838        0.1833       0
N628     N     0.0729       0.86729      0.17681      0
C867     C     0.07541      0.87259      0.1478       0
N629     N     0.08381      0.81181      0.27661      0
N630     N     0.02489      0.8459       0.26519      0
N631     N     0.08429      0.8806       0.2509       0
N632     N     0.06571      0.82481      0.21061      0
Zn79     Zn    0.0656       0.8417       0.2505       0
H547     H     0.1756       0.7903       0.25631      0
H548     H     0.02371      0.89421      0.34869      0
H549     H     0.12711      0.8729       0.25941      0
H550     H     0.02819      0.8983       0.2352       0
H551     H     0.0773       0.8925       0.1416       0
C868     C     0.11079      0.2012       0.7229       0
N633     N     0.13481      0.19539      0.73919      0
C869     C     0.1581       0.2125       0.73279      0
C870     C     0.01511      0.1394       0.7105       0
N634     N     0.03101      0.1266       0.68901      0
C871     C     0.01401      0.11479      0.6675       0
C872     C     0.11271      0.11271      0.7454       0
C873     C     0.07149      0.0928       0.75639      0
C874     C     0.04299      0.087        0.7642       0
N635     N     0.0378       0.05799      0.77099      0
C875     C     0.06949      0.16201      0.81669      0
N636     N     0.0729       0.1327       0.8232       0
C876     C     0.07541      0.1274       0.85221      0
N637     N     0.08381      0.1882       0.7234       0
N638     N     0.02489      0.15409      0.7348       0
N639     N     0.08429      0.11939      0.74909      0
N640     N     0.06571      0.1752       0.7894       0
Zn80     Zn    0.0656       0.15829      0.74951      0
H552     H     0.1756       0.20971      0.7437       0
H553     H     0.02371      0.1058       0.65129      0
H554     H     0.12711      0.12711      0.7406       0
H555     H     0.02819      0.10171      0.76479      0
H556     H     0.0773       0.10749      0.85841      0
C877     C     0.7971       0.4311       0.20289      0
C878     C     0.77711      0.3892       0.2012       0
C879     C     0.76079      0.36521      0.19539      0
N641     N     0.76721      0.3419       0.2125       0
C880     C     0.78951      0.48491      0.1394       0
N642     N     0.811        0.46901      0.1266       0
C881     C     0.8325       0.48601      0.11479      0
C882     C     0.74359      0.4285       0.0928       0
N643     N     0.73581      0.457        0.087        0
C883     C     0.72899      0.46219      0.05799      0
C884     C     0.68329      0.4305       0.16201      0
N644     N     0.6768       0.42709      0.1327       0
C885     C     0.6478       0.42461      0.1274       0
N645     N     0.7766       0.41621      0.1882       0
N646     N     0.76521      0.4751       0.15409      0
N647     N     0.75089      0.4157       0.11939      0
N648     N     0.71061      0.43431      0.1752       0
Zn81     Zn    0.7505       0.43439      0.15829      0
H557     H     0.80099      0.4512       0.199        0
H558     H     0.74621      0.3647       0.1805       0
H559     H     0.84871      0.47631      0.1058       0
H560     H     0.724        0.4817       0.05241      0
H561     H     0.6416       0.4227       0.10749      0
C886     C     0.20289      0.4311       0.7971       0
C887     C     0.2229       0.3892       0.79879      0
C888     C     0.2392       0.36521      0.8046       0
N649     N     0.2328       0.3419       0.78751      0
C889     C     0.2105       0.48491      0.86061      0
N650     N     0.18899      0.46901      0.87341      0
C890     C     0.16751      0.48601      0.88519      0
C891     C     0.2564       0.4285       0.90721      0
N651     N     0.2642       0.457        0.91299      0
C892     C     0.271        0.46219      0.942        0
C893     C     0.3167       0.4305       0.838        0
N652     N     0.32321      0.42709      0.86729      0
C894     C     0.35219      0.42461      0.87259      0
N653     N     0.22341      0.41621      0.81181      0
N654     N     0.2348       0.4751       0.8459       0
N655     N     0.2491       0.4157       0.8806       0
N656     N     0.28941      0.43431      0.82481      0
Zn82     Zn    0.24949      0.43439      0.8417       0
H562     H     0.199        0.4512       0.80099      0
H563     H     0.2538       0.3647       0.81951      0
H564     H     0.1513       0.47631      0.89421      0
H565     H     0.27599      0.4817       0.94761      0
H566     H     0.35839      0.4227       0.8925       0
C895     C     0.7971       0.56889      0.7971       0
C896     C     0.77711      0.61081      0.79879      0
C897     C     0.76079      0.6348       0.8046       0
N657     N     0.76721      0.65809      0.78751      0
C898     C     0.78951      0.5151       0.86061      0
N658     N     0.811        0.531        0.87341      0
C899     C     0.8325       0.514        0.88519      0
C900     C     0.74359      0.57151      0.90721      0
N659     N     0.73581      0.54301      0.91299      0
C901     C     0.72899      0.5378       0.942        0
C902     C     0.68329      0.56951      0.838        0
N660     N     0.6768       0.5729       0.86729      0
C903     C     0.6478       0.5754       0.87259      0
N661     N     0.7766       0.5838       0.81181      0
N662     N     0.76521      0.52491      0.8459       0
N663     N     0.75089      0.58431      0.8806       0
N664     N     0.71061      0.5657       0.82481      0
Zn83     Zn    0.7505       0.56559      0.8417       0
H567     H     0.80099      0.54879      0.80099      0
H568     H     0.74621      0.63531      0.81951      0
H569     H     0.84871      0.5237       0.89421      0
H570     H     0.724        0.51829      0.94761      0
H571     H     0.6416       0.57729      0.8925       0
C904     C     0.20289      0.56889      0.20289      0
C905     C     0.2229       0.61081      0.2012       0
C906     C     0.2392       0.6348       0.19539      0
N665     N     0.2328       0.65809      0.2125       0
C907     C     0.2105       0.5151       0.1394       0
N666     N     0.18899      0.531        0.1266       0
C908     C     0.16751      0.514        0.11479      0
C909     C     0.2564       0.57151      0.0928       0
N667     N     0.2642       0.54301      0.087        0
C910     C     0.271        0.5378       0.05799      0
C911     C     0.3167       0.56951      0.16201      0
N668     N     0.32321      0.5729       0.1327       0
C912     C     0.35219      0.5754       0.1274       0
N669     N     0.22341      0.5838       0.1882       0
N670     N     0.2348       0.52491      0.15409      0
N671     N     0.2491       0.58431      0.11939      0
N672     N     0.28941      0.5657       0.1752       0
Zn84     Zn    0.24949      0.56559      0.15829      0
H572     H     0.199        0.54879      0.199        0
H573     H     0.2538       0.63531      0.1805       0
H574     H     0.1513       0.5237       0.1058       0
H575     H     0.27599      0.51829      0.05241      0
H576     H     0.35839      0.57729      0.10749      0
C913     C     0.7971       0.20289      0.56889      0
C914     C     0.77711      0.2012       0.61081      0
C915     C     0.76079      0.19539      0.6348       0
N673     N     0.76721      0.2125       0.65809      0
C916     C     0.78951      0.1394       0.5151       0
N674     N     0.811        0.1266       0.531        0
C917     C     0.8325       0.11479      0.514        0
C918     C     0.74359      0.0928       0.57151      0
N675     N     0.73581      0.087        0.54301      0
C919     C     0.72899      0.05799      0.5378       0
C920     C     0.68329      0.16201      0.56951      0
N676     N     0.6768       0.1327       0.5729       0
C921     C     0.6478       0.1274       0.5754       0
N677     N     0.7766       0.1882       0.5838       0
N678     N     0.76521      0.15409      0.52491      0
N679     N     0.75089      0.11939      0.58431      0
N680     N     0.71061      0.1752       0.5657       0
Zn85     Zn    0.7505       0.15829      0.56559      0
H577     H     0.80099      0.199        0.54879      0
H578     H     0.74621      0.1805       0.63531      0
H579     H     0.84871      0.1058       0.5237       0
H580     H     0.724        0.05241      0.51829      0
H581     H     0.6416       0.10749      0.57729      0
C922     C     0.20289      0.7971       0.56889      0
C923     C     0.2229       0.79879      0.61081      0
C924     C     0.2392       0.8046       0.6348       0
N681     N     0.2328       0.78751      0.65809      0
C925     C     0.2105       0.86061      0.5151       0
N682     N     0.18899      0.87341      0.531        0
C926     C     0.16751      0.88519      0.514        0
C927     C     0.2564       0.90721      0.57151      0
N683     N     0.2642       0.91299      0.54301      0
C928     C     0.271        0.942        0.5378       0
C929     C     0.3167       0.838        0.56951      0
N684     N     0.32321      0.86729      0.5729       0
C930     C     0.35219      0.87259      0.5754       0
N685     N     0.22341      0.81181      0.5838       0
N686     N     0.2348       0.8459       0.52491      0
N687     N     0.2491       0.8806       0.58431      0
N688     N     0.28941      0.82481      0.5657       0
Zn86     Zn    0.24949      0.8417       0.56559      0
H582     H     0.199        0.80099      0.54879      0
H583     H     0.2538       0.81951      0.63531      0
H584     H     0.1513       0.89421      0.5237       0
H585     H     0.27599      0.94761      0.51829      0
H586     H     0.35839      0.8925       0.57729      0
C931     C     0.7971       0.7971       0.4311       0
C932     C     0.77711      0.79879      0.3892       0
C933     C     0.76079      0.8046       0.36521      0
N689     N     0.76721      0.78751      0.3419       0
C934     C     0.78951      0.86061      0.48491      0
N690     N     0.811        0.87341      0.46901      0
C935     C     0.8325       0.88519      0.48601      0
C936     C     0.74359      0.90721      0.4285       0
N691     N     0.73581      0.91299      0.457        0
C937     C     0.72899      0.942        0.46219      0
C938     C     0.68329      0.838        0.4305       0
N692     N     0.6768       0.86729      0.42709      0
C939     C     0.6478       0.87259      0.42461      0
N693     N     0.7766       0.81181      0.41621      0
N694     N     0.76521      0.8459       0.4751       0
N695     N     0.75089      0.8806       0.4157       0
N696     N     0.71061      0.82481      0.43431      0
Zn87     Zn    0.7505       0.8417       0.43439      0
H587     H     0.80099      0.80099      0.4512       0
H588     H     0.74621      0.81951      0.3647       0
H589     H     0.84871      0.89421      0.47631      0
H590     H     0.724        0.94761      0.4817       0
H591     H     0.6416       0.8925       0.4227       0
C940     C     0.20289      0.20289      0.4311       0
C941     C     0.2229       0.2012       0.3892       0
C942     C     0.2392       0.19539      0.36521      0
N697     N     0.2328       0.2125       0.3419       0
C943     C     0.2105       0.1394       0.48491      0
N698     N     0.18899      0.1266       0.46901      0
C944     C     0.16751      0.11479      0.48601      0
C945     C     0.2564       0.0928       0.4285       0
N699     N     0.2642       0.087        0.457        0
C946     C     0.271        0.05799      0.46219      0
C947     C     0.3167       0.16201      0.4305       0
N700     N     0.32321      0.1327       0.42709      0
C948     C     0.35219      0.1274       0.42461      0
N701     N     0.22341      0.1882       0.41621      0
N702     N     0.2348       0.15409      0.4751       0
N703     N     0.2491       0.11939      0.4157       0
N704     N     0.28941      0.1752       0.43431      0
Zn88     Zn    0.24949      0.15829      0.43439      0
H592     H     0.199        0.199        0.4512       0
H593     H     0.2538       0.1805       0.3647       0
H594     H     0.1513       0.1058       0.47631      0
H595     H     0.27599      0.05241      0.4817       0
H596     H     0.35839      0.10749      0.4227       0
C949     C     0.70291      0.4311       0.70291      0
C950     C     0.70119      0.3892       0.7229       0
C951     C     0.69541      0.36521      0.73919      0
N705     N     0.7125       0.3419       0.73279      0
C952     C     0.6394       0.48491      0.7105       0
N706     N     0.6266       0.46901      0.68901      0
C953     C     0.61479      0.48601      0.6675       0
C954     C     0.6127       0.38729      0.7454       0
C955     C     0.5928       0.4285       0.75639      0
C956     C     0.58699      0.457        0.7642       0
N707     N     0.55801      0.46219      0.77099      0
C957     C     0.662        0.4305       0.81669      0
N708     N     0.63269      0.42709      0.8232       0
C958     C     0.62739      0.42461      0.85221      0
N709     N     0.6882       0.41621      0.7234       0
N710     N     0.65411      0.4751       0.7348       0
N711     N     0.61941      0.4157       0.74909      0
N712     N     0.6752       0.43431      0.7894       0
Zn89     Zn    0.65831      0.43439      0.74951      0
H597     H     0.69899      0.4512       0.69899      0
H598     H     0.6805       0.3647       0.7538       0
H599     H     0.60579      0.47631      0.65129      0
H600     H     0.6271       0.37291      0.7406       0
H601     H     0.6017       0.4718       0.76479      0
H602     H     0.60751      0.4227       0.85841      0
C959     C     0.2971       0.4311       0.2971       0
C960     C     0.2988       0.3892       0.27709      0
C961     C     0.3046       0.36521      0.26079      0
N713     N     0.28749      0.3419       0.26719      0
C962     C     0.36059      0.48491      0.28949      0
N714     N     0.37339      0.46901      0.311        0
C963     C     0.3852       0.48601      0.33251      0
C964     C     0.38729      0.38729      0.25459      0
C965     C     0.40719      0.4285       0.2436       0
C966     C     0.413        0.457        0.23579      0
N715     N     0.442        0.46219      0.229        0
C967     C     0.33801      0.4305       0.1833       0
N716     N     0.3673       0.42709      0.17681      0
C968     C     0.3726       0.42461      0.1478       0
N717     N     0.31179      0.41621      0.27661      0
N718     N     0.3459       0.4751       0.26519      0
N719     N     0.3806       0.4157       0.2509       0
N720     N     0.32479      0.43431      0.21061      0
Zn90     Zn    0.3417       0.43439      0.2505       0
H603     H     0.301        0.4512       0.301        0
H604     H     0.31949      0.3647       0.24619      0
H605     H     0.39419      0.47631      0.34869      0
H606     H     0.37291      0.37291      0.25941      0
H607     H     0.39831      0.4718       0.2352       0
H608     H     0.3925       0.4227       0.1416       0
C969     C     0.2971       0.56889      0.70291      0
C970     C     0.2988       0.61081      0.7229       0
C971     C     0.3046       0.6348       0.73919      0
N721     N     0.28749      0.65809      0.73279      0
C972     C     0.36059      0.5151       0.7105       0
N722     N     0.37339      0.531        0.68901      0
C973     C     0.3852       0.514        0.6675       0
C974     C     0.38729      0.6127       0.7454       0
C975     C     0.40719      0.57151      0.75639      0
C976     C     0.413        0.54301      0.7642       0
N723     N     0.442        0.5378       0.77099      0
C977     C     0.33801      0.56951      0.81669      0
N724     N     0.3673       0.5729       0.8232       0
C978     C     0.3726       0.5754       0.85221      0
N725     N     0.31179      0.5838       0.7234       0
N726     N     0.3459       0.52491      0.7348       0
N727     N     0.3806       0.58431      0.74909      0
N728     N     0.32479      0.5657       0.7894       0
Zn91     Zn    0.3417       0.56559      0.74951      0
H609     H     0.301        0.54879      0.69899      0
H610     H     0.31949      0.63531      0.7538       0
H611     H     0.39419      0.5237       0.65129      0
H612     H     0.37291      0.6271       0.7406       0
H613     H     0.39831      0.52821      0.76479      0
H614     H     0.3925       0.57729      0.85841      0
C979     C     0.70291      0.56889      0.2971       0
C980     C     0.70119      0.61081      0.27709      0
C981     C     0.69541      0.6348       0.26079      0
N729     N     0.7125       0.65809      0.26719      0
C982     C     0.6394       0.5151       0.28949      0
N730     N     0.6266       0.531        0.311        0
C983     C     0.61479      0.514        0.33251      0
C984     C     0.6127       0.6127       0.25459      0
C985     C     0.5928       0.57151      0.2436       0
C986     C     0.58699      0.54301      0.23579      0
N731     N     0.55801      0.5378       0.229        0
C987     C     0.662        0.56951      0.1833       0
N732     N     0.63269      0.5729       0.17681      0
C988     C     0.62739      0.5754       0.1478       0
N733     N     0.6882       0.5838       0.27661      0
N734     N     0.65411      0.52491      0.26519      0
N735     N     0.61941      0.58431      0.2509       0
N736     N     0.6752       0.5657       0.21061      0
Zn92     Zn    0.65831      0.56559      0.2505       0
H615     H     0.69899      0.54879      0.301        0
H616     H     0.6805       0.63531      0.24619      0
H617     H     0.60579      0.5237       0.34869      0
H618     H     0.6271       0.6271       0.25941      0
H619     H     0.6017       0.52821      0.2352       0
H620     H     0.60751      0.57729      0.1416       0
C989     C     0.8892       0.27709      0.79879      0
N737     N     0.8652       0.26079      0.8046       0
C990     C     0.84189      0.26719      0.78751      0
C991     C     0.9849       0.28949      0.86061      0
N738     N     0.969        0.311        0.87341      0
C992     C     0.986        0.33251      0.88519      0
C993     C     0.88731      0.25459      0.88731      0
C994     C     0.9285       0.2436       0.90721      0
C995     C     0.957        0.23579      0.91299      0
N739     N     0.96221      0.229        0.942        0
C996     C     0.9305       0.1833       0.838        0
N740     N     0.92711      0.17681      0.86729      0
C997     C     0.9246       0.1478       0.87259      0
N741     N     0.9162       0.27661      0.81181      0
N742     N     0.97509      0.26519      0.8459       0
N743     N     0.9157       0.2509       0.8806       0
N744     N     0.9343       0.21061      0.82481      0
Zn93     Zn    0.93441      0.2505       0.8417       0
H621     H     0.82441      0.25631      0.7903       0
H622     H     0.9763       0.34869      0.89421      0
H623     H     0.8729       0.25941      0.8729       0
H624     H     0.9718       0.2352       0.8983       0
H625     H     0.92269      0.1416       0.8925       0
C998     C     0.8892       0.7229       0.2012       0
N745     N     0.8652       0.73919      0.19539      0
C999     C     0.84189      0.73279      0.2125       0
C1000    C     0.9849       0.7105       0.1394       0
N746     N     0.969        0.68901      0.1266       0
C1001    C     0.986        0.6675       0.11479      0
C1002    C     0.88731      0.7454       0.11271      0
C1003    C     0.9285       0.75639      0.0928       0
C1004    C     0.957        0.7642       0.087        0
N747     N     0.96221      0.77099      0.05799      0
C1005    C     0.9305       0.81669      0.16201      0
N748     N     0.92711      0.8232       0.1327       0
C1006    C     0.9246       0.85221      0.1274       0
N749     N     0.9162       0.7234       0.1882       0
N750     N     0.97509      0.7348       0.15409      0
N751     N     0.9157       0.74909      0.11939      0
N752     N     0.9343       0.7894       0.1752       0
Zn94     Zn    0.93441      0.74951      0.15829      0
H626     H     0.82441      0.7437       0.20971      0
H627     H     0.9763       0.65129      0.1058       0
H628     H     0.8729       0.7406       0.12711      0
H629     H     0.9718       0.76479      0.10171      0
H630     H     0.92269      0.85841      0.10749      0
C1007    C     0.11079      0.27709      0.2012       0
N753     N     0.13481      0.26079      0.19539      0
C1008    C     0.1581       0.26719      0.2125       0
C1009    C     0.01511      0.28949      0.1394       0
N754     N     0.03101      0.311        0.1266       0
C1010    C     0.01401      0.33251      0.11479      0
C1011    C     0.11271      0.25459      0.11271      0
C1012    C     0.07149      0.2436       0.0928       0
C1013    C     0.04299      0.23579      0.087        0
N755     N     0.0378       0.229        0.05799      0
C1014    C     0.06949      0.1833       0.16201      0
N756     N     0.0729       0.17681      0.1327       0
C1015    C     0.07541      0.1478       0.1274       0
N757     N     0.08381      0.27661      0.1882       0
N758     N     0.02489      0.26519      0.15409      0
N759     N     0.08429      0.2509       0.11939      0
N760     N     0.06571      0.21061      0.1752       0
Zn95     Zn    0.0656       0.2505       0.15829      0
H631     H     0.1756       0.25631      0.20971      0
H632     H     0.02371      0.34869      0.1058       0
H633     H     0.12711      0.25941      0.12711      0
H634     H     0.02819      0.2352       0.10171      0
H635     H     0.0773       0.1416       0.10749      0
C1016    C     0.11079      0.7229       0.79879      0
N761     N     0.13481      0.73919      0.8046       0
C1017    C     0.1581       0.73279      0.78751      0
C1018    C     0.01511      0.7105       0.86061      0
N762     N     0.03101      0.68901      0.87341      0
C1019    C     0.01401      0.6675       0.88519      0
C1020    C     0.11271      0.7454       0.88731      0
C1021    C     0.07149      0.75639      0.90721      0
C1022    C     0.04299      0.7642       0.91299      0
N763     N     0.0378       0.77099      0.942        0
C1023    C     0.06949      0.81669      0.838        0
N764     N     0.0729       0.8232       0.86729      0
C1024    C     0.07541      0.85221      0.87259      0
N765     N     0.08381      0.7234       0.81181      0
N766     N     0.02489      0.7348       0.8459       0
N767     N     0.08429      0.74909      0.8806       0
N768     N     0.06571      0.7894       0.82481      0
Zn96     Zn    0.0656       0.74951      0.8417       0
H636     H     0.1756       0.7437       0.7903       0
H637     H     0.02371      0.65129      0.89421      0
H638     H     0.12711      0.7406       0.8729       0
H639     H     0.02819      0.76479      0.8983       0
H640     H     0.0773       0.85841      0.8925       0
C1025    C     0.79879      0.2229       0.61081      0
N769     N     0.8046       0.2392       0.6348       0
C1026    C     0.78751      0.2328       0.65809      0
C1027    C     0.83789      0.24839      0.49999      0
C1028    C     0.86061      0.2105       0.5151       0
C1029    C     0.87341      0.18899      0.531        0
N770     N     0.88519      0.16751      0.514        0
C1030    C     0.90721      0.2564       0.57151      0
N771     N     0.91299      0.2642       0.54301      0
C1031    C     0.942        0.271        0.5378       0
C1032    C     0.7962       0.2962       0.56399      0
C1033    C     0.838        0.3167       0.56951      0
C1034    C     0.86729      0.32321      0.5729       0
N772     N     0.87259      0.35219      0.5754       0
N773     N     0.81181      0.22341      0.5838       0
N774     N     0.8459       0.2348       0.52491      0
N775     N     0.8806       0.2491       0.58431      0
N776     N     0.82481      0.28941      0.5657       0
Zn97     Zn    0.8417       0.24949      0.56559      0
H641     H     0.7903       0.24371      0.6756       0
H642     H     0.8272       0.26629      0.49999      0
H643     H     0.874        0.18891      0.55181      0
H644     H     0.94761      0.27599      0.51829      0
H645     H     0.78151      0.28151      0.56159      0
H646     H     0.88229      0.30869      0.57349      0
C1035    C     0.2012       0.77711      0.61081      0
N777     N     0.19539      0.76079      0.6348       0
C1036    C     0.2125       0.76721      0.65809      0
C1037    C     0.1621       0.7516       0.49999      0
C1038    C     0.1394       0.78951      0.5151       0
C1039    C     0.1266       0.811        0.531        0
N778     N     0.11479      0.8325       0.514        0
C1040    C     0.0928       0.74359      0.57151      0
N779     N     0.087        0.73581      0.54301      0
C1041    C     0.05799      0.72899      0.5378       0
C1042    C     0.20379      0.70381      0.56399      0
C1043    C     0.16201      0.68329      0.56951      0
C1044    C     0.1327       0.6768       0.5729       0
N780     N     0.1274       0.6478       0.5754       0
N781     N     0.1882       0.7766       0.5838       0
N782     N     0.15409      0.76521      0.52491      0
N783     N     0.11939      0.75089      0.58431      0
N784     N     0.1752       0.71061      0.5657       0
Zn98     Zn    0.15829      0.7505       0.56559      0
H647     H     0.20971      0.7563       0.6756       0
H648     H     0.17281      0.7337       0.49999      0
H649     H     0.12601      0.81111      0.55181      0
H650     H     0.05241      0.724        0.51829      0
H651     H     0.21851      0.7185       0.56159      0
H652     H     0.1177       0.6913       0.57349      0
C1045    C     0.2012       0.2229       0.3892       0
N785     N     0.19539      0.2392       0.36521      0
C1046    C     0.2125       0.2328       0.3419       0
C1047    C     0.1621       0.24839      0.49999      0
C1048    C     0.1394       0.2105       0.48491      0
C1049    C     0.1266       0.18899      0.46901      0
N786     N     0.11479      0.16751      0.48601      0
C1050    C     0.0928       0.2564       0.4285       0
N787     N     0.087        0.2642       0.457        0
C1051    C     0.05799      0.271        0.46219      0
C1052    C     0.20379      0.2962       0.436        0
C1053    C     0.16201      0.3167       0.4305       0
C1054    C     0.1327       0.32321      0.42709      0
N788     N     0.1274       0.35219      0.42461      0
N789     N     0.1882       0.22341      0.41621      0
N790     N     0.15409      0.2348       0.4751       0
N791     N     0.11939      0.2491       0.4157       0
N792     N     0.1752       0.28941      0.43431      0
Zn99     Zn    0.15829      0.24949      0.43439      0
H653     H     0.20971      0.24371      0.32439      0
H654     H     0.17281      0.26629      0.49999      0
H655     H     0.12601      0.18891      0.4482       0
H656     H     0.05241      0.27599      0.4817       0
H657     H     0.21851      0.28151      0.4384       0
H658     H     0.1177       0.30869      0.4265       0
C1055    C     0.79879      0.77711      0.3892       0
N793     N     0.8046       0.76079      0.36521      0
C1056    C     0.78751      0.76721      0.3419       0
C1057    C     0.83789      0.7516       0.49999      0
C1058    C     0.86061      0.78951      0.48491      0
C1059    C     0.87341      0.811        0.46901      0
N794     N     0.88519      0.8325       0.48601      0
C1060    C     0.90721      0.74359      0.4285       0
N795     N     0.91299      0.73581      0.457        0
C1061    C     0.942        0.72899      0.46219      0
C1062    C     0.7962       0.70381      0.436        0
C1063    C     0.838        0.68329      0.4305       0
C1064    C     0.86729      0.6768       0.42709      0
N796     N     0.87259      0.6478       0.42461      0
N797     N     0.81181      0.7766       0.41621      0
N798     N     0.8459       0.76521      0.4751       0
N799     N     0.8806       0.75089      0.4157       0
N800     N     0.82481      0.71061      0.43431      0
Zn100    Zn    0.8417       0.7505       0.43439      0
H659     H     0.7903       0.7563       0.32439      0
H660     H     0.8272       0.7337       0.49999      0
H661     H     0.874        0.81111      0.4482       0
H662     H     0.94761      0.724        0.4817       0
H663     H     0.78151      0.7185       0.4384       0
H664     H     0.88229      0.6913       0.4265       0
C1065    C     0.56889      0.2971       0.70291      0
C1066    C     0.61081      0.2988       0.7229       0
C1067    C     0.6348       0.3046       0.73919      0
N801     N     0.65809      0.28749      0.73279      0
C1068    C     0.49999      0.3379       0.74841      0
C1069    C     0.5151       0.36059      0.7105       0
C1070    C     0.531        0.37339      0.68901      0
N802     N     0.514        0.3852       0.6675       0
C1071    C     0.57151      0.40719      0.75639      0
N803     N     0.54301      0.413        0.7642       0
C1072    C     0.5378       0.442        0.77099      0
C1073    C     0.56399      0.2962       0.7962       0
C1074    C     0.56951      0.33801      0.81669      0
C1075    C     0.5729       0.3673       0.8232       0
N804     N     0.5754       0.3726       0.85221      0
N805     N     0.5838       0.31179      0.7234       0
N806     N     0.52491      0.3459       0.7348       0
N807     N     0.58431      0.3806       0.74909      0
N808     N     0.5657       0.32479      0.7894       0
Zn101    Zn    0.56559      0.3417       0.74951      0
H665     H     0.54879      0.301        0.69899      0
H666     H     0.63531      0.31949      0.7538       0
H667     H     0.49999      0.32721      0.76631      0
H668     H     0.55181      0.37401      0.6889       0
H669     H     0.51829      0.44759      0.77601      0
H670     H     0.56159      0.28151      0.78151      0
H671     H     0.57349      0.3823       0.80871      0
C1076    C     0.56889      0.70291      0.2971       0
C1077    C     0.61081      0.70119      0.27709      0
C1078    C     0.6348       0.69541      0.26079      0
N809     N     0.65809      0.7125       0.26719      0
C1079    C     0.49999      0.66209      0.2516       0
C1080    C     0.5151       0.6394       0.28949      0
C1081    C     0.531        0.6266       0.311        0
N810     N     0.514        0.61479      0.33251      0
C1082    C     0.57151      0.5928       0.2436       0
N811     N     0.54301      0.58699      0.23579      0
C1083    C     0.5378       0.55801      0.229        0
C1084    C     0.56399      0.70381      0.20379      0
C1085    C     0.56951      0.662        0.1833       0
C1086    C     0.5729       0.63269      0.17681      0
N812     N     0.5754       0.62739      0.1478       0
N813     N     0.5838       0.6882       0.27661      0
N814     N     0.52491      0.65411      0.26519      0
N815     N     0.58431      0.61941      0.2509       0
N816     N     0.5657       0.6752       0.21061      0
Zn102    Zn    0.56559      0.65831      0.2505       0
H672     H     0.54879      0.69899      0.301        0
H673     H     0.63531      0.6805       0.24619      0
H674     H     0.49999      0.6728       0.2337       0
H675     H     0.55181      0.626        0.31109      0
H676     H     0.51829      0.5524       0.224        0
H677     H     0.56159      0.7185       0.21851      0
H678     H     0.57349      0.61769      0.1913       0
C1087    C     0.4311       0.70291      0.70291      0
C1088    C     0.3892       0.70119      0.7229       0
C1089    C     0.36521      0.69541      0.73919      0
N817     N     0.3419       0.7125       0.73279      0
C1090    C     0.49999      0.66209      0.74841      0
C1091    C     0.48491      0.6394       0.7105       0
C1092    C     0.46901      0.6266       0.68901      0
N818     N     0.48601      0.61479      0.6675       0
C1093    C     0.4285       0.5928       0.75639      0
N819     N     0.457        0.58699      0.7642       0
C1094    C     0.46219      0.55801      0.77099      0
C1095    C     0.436        0.70381      0.7962       0
C1096    C     0.4305       0.662        0.81669      0
C1097    C     0.42709      0.63269      0.8232       0
N820     N     0.42461      0.62739      0.85221      0
N821     N     0.41621      0.6882       0.7234       0
N822     N     0.4751       0.65411      0.7348       0
N823     N     0.4157       0.61941      0.74909      0
N824     N     0.43431      0.6752       0.7894       0
Zn103    Zn    0.43439      0.65831      0.74951      0
H679     H     0.4512       0.69899      0.69899      0
H680     H     0.3647       0.6805       0.7538       0
H681     H     0.49999      0.6728       0.76631      0
H682     H     0.4482       0.626        0.6889       0
H683     H     0.4817       0.5524       0.77601      0
H684     H     0.4384       0.7185       0.78151      0
H685     H     0.4265       0.61769      0.80871      0
C1098    C     0.4311       0.2971       0.2971       0
C1099    C     0.3892       0.2988       0.27709      0
C1100    C     0.36521      0.3046       0.26079      0
N825     N     0.3419       0.28749      0.26719      0
C1101    C     0.49999      0.3379       0.2516       0
C1102    C     0.48491      0.36059      0.28949      0
C1103    C     0.46901      0.37339      0.311        0
N826     N     0.48601      0.3852       0.33251      0
C1104    C     0.4285       0.40719      0.2436       0
N827     N     0.457        0.413        0.23579      0
C1105    C     0.46219      0.442        0.229        0
C1106    C     0.436        0.2962       0.20379      0
C1107    C     0.4305       0.33801      0.1833       0
C1108    C     0.42709      0.3673       0.17681      0
N828     N     0.42461      0.3726       0.1478       0
N829     N     0.41621      0.31179      0.27661      0
N830     N     0.4751       0.3459       0.26519      0
N831     N     0.4157       0.3806       0.2509       0
N832     N     0.43431      0.32479      0.21061      0
Zn104    Zn    0.43439      0.3417       0.2505       0
H686     H     0.4512       0.301        0.301        0
H687     H     0.3647       0.31949      0.24619      0
H688     H     0.49999      0.32721      0.2337       0
H689     H     0.4482       0.37401      0.31109      0
H690     H     0.4817       0.44759      0.224        0
H691     H     0.4384       0.28151      0.21851      0
H692     H     0.4265       0.3823       0.1913       0
C1109    C     0.7229       0.11079      0.79879      0
N833     N     0.73919      0.13481      0.8046       0
C1110    C     0.73279      0.1581       0.78751      0
C1111    C     0.74841      0            0.83789      0
C1112    C     0.7105       0.01511      0.86061      0
C1113    C     0.68901      0.03101      0.87341      0
N834     N     0.6675       0.01401      0.88519      0
C1114    C     0.7454       0.11271      0.88731      0
C1115    C     0.75639      0.07149      0.90721      0
C1116    C     0.7642       0.04299      0.91299      0
N835     N     0.77099      0.0378       0.942        0
C1117    C     0.7962       0.06399      0.7962       0
C1118    C     0.81669      0.06949      0.838        0
C1119    C     0.8232       0.0729       0.86729      0
N836     N     0.85221      0.07541      0.87259      0
N837     N     0.7234       0.08381      0.81181      0
N838     N     0.7348       0.02489      0.8459       0
N839     N     0.74909      0.08429      0.8806       0
N840     N     0.7894       0.06571      0.82481      0
Zn105    Zn    0.74951      0.0656       0.8417       0
H693     H     0.7437       0.1756       0.7903       0
H694     H     0.76631      0            0.8272       0
H695     H     0.6889       0.05179      0.874        0
H696     H     0.7406       0.12711      0.8729       0
H697     H     0.76479      0.02819      0.8983       0
H698     H     0.78151      0.0616       0.78151      0
H699     H     0.80871      0.07349      0.88229      0
C1120    C     0.27709      0.11079      0.2012       0
N841     N     0.26079      0.13481      0.19539      0
C1121    C     0.26719      0.1581       0.2125       0
C1122    C     0.2516       0            0.1621       0
C1123    C     0.28949      0.01511      0.1394       0
C1124    C     0.311        0.03101      0.1266       0
N842     N     0.33251      0.01401      0.11479      0
C1125    C     0.25459      0.11271      0.11271      0
C1126    C     0.2436       0.07149      0.0928       0
C1127    C     0.23579      0.04299      0.087        0
N843     N     0.229        0.0378       0.05799      0
C1128    C     0.20379      0.06399      0.20379      0
C1129    C     0.1833       0.06949      0.16201      0
C1130    C     0.17681      0.0729       0.1327       0
N844     N     0.1478       0.07541      0.1274       0
N845     N     0.27661      0.08381      0.1882       0
N846     N     0.26519      0.02489      0.15409      0
N847     N     0.2509       0.08429      0.11939      0
N848     N     0.21061      0.06571      0.1752       0
Zn106    Zn    0.2505       0.0656       0.15829      0
H700     H     0.25631      0.1756       0.20971      0
H701     H     0.2337       0            0.17281      0
H702     H     0.31109      0.05179      0.12601      0
H703     H     0.25941      0.12711      0.12711      0
H704     H     0.2352       0.02819      0.10171      0
H705     H     0.21851      0.0616       0.21851      0
H706     H     0.1913       0.07349      0.1177       0
C1131    C     0.7229       0.8892       0.2012       0
N849     N     0.73919      0.8652       0.19539      0
C1132    C     0.73279      0.84189      0.2125       0
C1133    C     0.74841      0            0.1621       0
C1134    C     0.7105       0.9849       0.1394       0
C1135    C     0.68901      0.969        0.1266       0
N850     N     0.6675       0.986        0.11479      0
C1136    C     0.7454       0.88731      0.11271      0
C1137    C     0.75639      0.9285       0.0928       0
C1138    C     0.7642       0.957        0.087        0
N851     N     0.77099      0.96221      0.05799      0
C1139    C     0.7962       0.93599      0.20379      0
C1140    C     0.81669      0.9305       0.16201      0
C1141    C     0.8232       0.92711      0.1327       0
N852     N     0.85221      0.9246       0.1274       0
N853     N     0.7234       0.9162       0.1882       0
N854     N     0.7348       0.97509      0.15409      0
N855     N     0.74909      0.9157       0.11939      0
N856     N     0.7894       0.9343       0.1752       0
Zn107    Zn    0.74951      0.93441      0.15829      0
H707     H     0.7437       0.82441      0.20971      0
H708     H     0.76631      0            0.17281      0
H709     H     0.6889       0.9482       0.12601      0
H710     H     0.7406       0.8729       0.12711      0
H711     H     0.76479      0.9718       0.10171      0
H712     H     0.78151      0.93839      0.21851      0
H713     H     0.80871      0.92649      0.1177       0
C1142    C     0.27709      0.8892       0.79879      0
N857     N     0.26079      0.8652       0.8046       0
C1143    C     0.26719      0.84189      0.78751      0
C1144    C     0.2516       0            0.83789      0
C1145    C     0.28949      0.9849       0.86061      0
C1146    C     0.311        0.969        0.87341      0
N858     N     0.33251      0.986        0.88519      0
C1147    C     0.25459      0.88731      0.88731      0
C1148    C     0.2436       0.9285       0.90721      0
C1149    C     0.23579      0.957        0.91299      0
N859     N     0.229        0.96221      0.942        0
C1150    C     0.20379      0.93599      0.7962       0
C1151    C     0.1833       0.9305       0.838        0
C1152    C     0.17681      0.92711      0.86729      0
N860     N     0.1478       0.9246       0.87259      0
N861     N     0.27661      0.9162       0.81181      0
N862     N     0.26519      0.97509      0.8459       0
N863     N     0.2509       0.9157       0.8806       0
N864     N     0.21061      0.9343       0.82481      0
Zn108    Zn    0.2505       0.93441      0.8417       0
H714     H     0.25631      0.82441      0.7903       0
H715     H     0.2337       0            0.8272       0
H716     H     0.31109      0.9482       0.874        0
H717     H     0.25941      0.8729       0.8729       0
H718     H     0.2352       0.9718       0.8983       0
H719     H     0.21851      0.93839      0.78151      0
H720     H     0.1913       0.92649      0.88229      0
C1153    C     0.7229       0.2988       0.3892       0
N865     N     0.73919      0.3046       0.36521      0
C1154    C     0.73279      0.28749      0.3419       0
C1155    C     0.74841      0.3379       0.49999      0
C1156    C     0.7105       0.36059      0.48491      0
C1157    C     0.68901      0.37339      0.46901      0
N866     N     0.6675       0.3852       0.48601      0
C1158    C     0.7454       0.38729      0.38729      0
C1159    C     0.75639      0.40719      0.4285       0
C1160    C     0.7642       0.413        0.457        0
N867     N     0.77099      0.442        0.46219      0
C1161    C     0.7962       0.2962       0.436        0
C1162    C     0.81669      0.33801      0.4305       0
C1163    C     0.8232       0.3673       0.42709      0
N868     N     0.85221      0.3726       0.42461      0
N869     N     0.7234       0.31179      0.41621      0
N870     N     0.7348       0.3459       0.4751       0
N871     N     0.74909      0.3806       0.4157       0
N872     N     0.7894       0.32479      0.43431      0
Zn109    Zn    0.74951      0.3417       0.43439      0
H721     H     0.7437       0.29031      0.32439      0
H722     H     0.76631      0.32721      0.49999      0
H723     H     0.6889       0.37401      0.4482       0
H724     H     0.7406       0.37291      0.37291      0
H725     H     0.76479      0.39831      0.4718       0
H726     H     0.78151      0.28151      0.4384       0
H727     H     0.80871      0.3823       0.4265       0
C1164    C     0.27709      0.70119      0.3892       0
N873     N     0.26079      0.69541      0.36521      0
C1165    C     0.26719      0.7125       0.3419       0
C1166    C     0.2516       0.66209      0.49999      0
C1167    C     0.28949      0.6394       0.48491      0
C1168    C     0.311        0.6266       0.46901      0
N874     N     0.33251      0.61479      0.48601      0
C1169    C     0.25459      0.6127       0.38729      0
C1170    C     0.2436       0.5928       0.4285       0
C1171    C     0.23579      0.58699      0.457        0
N875     N     0.229        0.55801      0.46219      0
C1172    C     0.20379      0.70381      0.436        0
C1173    C     0.1833       0.662        0.4305       0
C1174    C     0.17681      0.63269      0.42709      0
N876     N     0.1478       0.62739      0.42461      0
N877     N     0.27661      0.6882       0.41621      0
N878     N     0.26519      0.65411      0.4751       0
N879     N     0.2509       0.61941      0.4157       0
N880     N     0.21061      0.6752       0.43431      0
Zn110    Zn    0.2505       0.65831      0.43439      0
H728     H     0.25631      0.7097       0.32439      0
H729     H     0.2337       0.6728       0.49999      0
H730     H     0.31109      0.626        0.4482       0
H731     H     0.25941      0.6271       0.37291      0
H732     H     0.2352       0.6017       0.4718       0
H733     H     0.21851      0.7185       0.4384       0
H734     H     0.1913       0.61769      0.4265       0
C1175    C     0.7229       0.70119      0.61081      0
N881     N     0.73919      0.69541      0.6348       0
C1176    C     0.73279      0.7125       0.65809      0
C1177    C     0.74841      0.66209      0.49999      0
C1178    C     0.7105       0.6394       0.5151       0
C1179    C     0.68901      0.6266       0.531        0
N882     N     0.6675       0.61479      0.514        0
C1180    C     0.7454       0.6127       0.6127       0
C1181    C     0.75639      0.5928       0.57151      0
C1182    C     0.7642       0.58699      0.54301      0
N883     N     0.77099      0.55801      0.5378       0
C1183    C     0.7962       0.70381      0.56399      0
C1184    C     0.81669      0.662        0.56951      0
C1185    C     0.8232       0.63269      0.5729       0
N884     N     0.85221      0.62739      0.5754       0
N885     N     0.7234       0.6882       0.5838       0
N886     N     0.7348       0.65411      0.52491      0
N887     N     0.74909      0.61941      0.58431      0
N888     N     0.7894       0.6752       0.5657       0
Zn111    Zn    0.74951      0.65831      0.56559      0
H735     H     0.7437       0.7097       0.6756       0
H736     H     0.76631      0.6728       0.49999      0
H737     H     0.6889       0.626        0.55181      0
H738     H     0.7406       0.6271       0.6271       0
H739     H     0.76479      0.6017       0.52821      0
H740     H     0.78151      0.7185       0.56159      0
H741     H     0.80871      0.61769      0.57349      0
C1186    C     0.27709      0.2988       0.61081      0
N889     N     0.26079      0.3046       0.6348       0
C1187    C     0.26719      0.28749      0.65809      0
C1188    C     0.2516       0.3379       0.49999      0
C1189    C     0.28949      0.36059      0.5151       0
C1190    C     0.311        0.37339      0.531        0
N890     N     0.33251      0.3852       0.514        0
C1191    C     0.25459      0.38729      0.6127       0
C1192    C     0.2436       0.40719      0.57151      0
C1193    C     0.23579      0.413        0.54301      0
N891     N     0.229        0.442        0.5378       0
C1194    C     0.20379      0.2962       0.56399      0
C1195    C     0.1833       0.33801      0.56951      0
C1196    C     0.17681      0.3673       0.5729       0
N892     N     0.1478       0.3726       0.5754       0
N893     N     0.27661      0.31179      0.5838       0
N894     N     0.26519      0.3459       0.52491      0
N895     N     0.2509       0.3806       0.58431      0
N896     N     0.21061      0.32479      0.5657       0
Zn112    Zn    0.2505       0.3417       0.56559      0
H742     H     0.25631      0.29031      0.6756       0
H743     H     0.2337       0.32721      0.49999      0
H744     H     0.31109      0.37401      0.55181      0
H745     H     0.25941      0.37291      0.6271       0
H746     H     0.2352       0.39831      0.52821      0
H747     H     0.21851      0.28151      0.56159      0
H748     H     0.1913       0.3823       0.57349      0
C1197    C     0.79879      0.11079      0.27709      0
N897     N     0.8046       0.13481      0.26079      0
C1198    C     0.78751      0.1581       0.26719      0
C1199    C     0.83789      0            0.2516       0
C1200    C     0.86061      0.01511      0.28949      0
C1201    C     0.87341      0.03101      0.311        0
N898     N     0.88519      0.01401      0.33251      0
C1202    C     0.90721      0.07149      0.2436       0
N899     N     0.91299      0.04299      0.23579      0
C1203    C     0.942        0.0378       0.229        0
C1204    C     0.7962       0.06399      0.20379      0
C1205    C     0.838        0.06949      0.1833       0
C1206    C     0.86729      0.0729       0.17681      0
N900     N     0.87259      0.07541      0.1478       0
N901     N     0.81181      0.08381      0.27661      0
N902     N     0.8459       0.02489      0.26519      0
N903     N     0.8806       0.08429      0.2509       0
N904     N     0.82481      0.06571      0.21061      0
Zn113    Zn    0.8417       0.0656       0.2505       0
H749     H     0.7903       0.1756       0.25631      0
H750     H     0.8272       0            0.2337       0
H751     H     0.874        0.05179      0.31109      0
H752     H     0.94761      0.0183       0.224        0
H753     H     0.78151      0.0616       0.21851      0
H754     H     0.88229      0.07349      0.1913       0
C1207    C     0.2012       0.11079      0.7229       0
N905     N     0.19539      0.13481      0.73919      0
C1208    C     0.2125       0.1581       0.73279      0
C1209    C     0.1621       0            0.74841      0
C1210    C     0.1394       0.01511      0.7105       0
C1211    C     0.1266       0.03101      0.68901      0
N906     N     0.11479      0.01401      0.6675       0
C1212    C     0.0928       0.07149      0.75639      0
N907     N     0.087        0.04299      0.7642       0
C1213    C     0.05799      0.0378       0.77099      0
C1214    C     0.20379      0.06399      0.7962       0
C1215    C     0.16201      0.06949      0.81669      0
C1216    C     0.1327       0.0729       0.8232       0
N908     N     0.1274       0.07541      0.85221      0
N909     N     0.1882       0.08381      0.7234       0
N910     N     0.15409      0.02489      0.7348       0
N911     N     0.11939      0.08429      0.74909      0
N912     N     0.1752       0.06571      0.7894       0
Zn114    Zn    0.15829      0.0656       0.74951      0
H755     H     0.20971      0.1756       0.7437       0
H756     H     0.17281      0            0.76631      0
H757     H     0.12601      0.05179      0.6889       0
H758     H     0.05241      0.0183       0.77601      0
H759     H     0.21851      0.0616       0.78151      0
H760     H     0.1177       0.07349      0.80871      0
C1217    C     0.2012       0.8892       0.27709      0
N913     N     0.19539      0.8652       0.26079      0
C1218    C     0.2125       0.84189      0.26719      0
C1219    C     0.1621       0            0.2516       0
C1220    C     0.1394       0.9849       0.28949      0
C1221    C     0.1266       0.969        0.311        0
N914     N     0.11479      0.986        0.33251      0
C1222    C     0.0928       0.9285       0.2436       0
N915     N     0.087        0.957        0.23579      0
C1223    C     0.05799      0.96221      0.229        0
C1224    C     0.20379      0.93599      0.20379      0
C1225    C     0.16201      0.9305       0.1833       0
C1226    C     0.1327       0.92711      0.17681      0
N916     N     0.1274       0.9246       0.1478       0
N917     N     0.1882       0.9162       0.27661      0
N918     N     0.15409      0.97509      0.26519      0
N919     N     0.11939      0.9157       0.2509       0
N920     N     0.1752       0.9343       0.21061      0
Zn115    Zn    0.15829      0.93441      0.2505       0
H761     H     0.20971      0.82441      0.25631      0
H762     H     0.17281      0            0.2337       0
H763     H     0.12601      0.9482       0.31109      0
H764     H     0.05241      0.98169      0.224        0
H765     H     0.21851      0.93839      0.21851      0
H766     H     0.1177       0.92649      0.1913       0
C1227    C     0.79879      0.8892       0.7229       0
N921     N     0.8046       0.8652       0.73919      0
C1228    C     0.78751      0.84189      0.73279      0
C1229    C     0.83789      0            0.74841      0
C1230    C     0.86061      0.9849       0.7105       0
C1231    C     0.87341      0.969        0.68901      0
N922     N     0.88519      0.986        0.6675       0
C1232    C     0.90721      0.9285       0.75639      0
N923     N     0.91299      0.957        0.7642       0
C1233    C     0.942        0.96221      0.77099      0
C1234    C     0.7962       0.93599      0.7962       0
C1235    C     0.838        0.9305       0.81669      0
C1236    C     0.86729      0.92711      0.8232       0
N924     N     0.87259      0.9246       0.85221      0
N925     N     0.81181      0.9162       0.7234       0
N926     N     0.8459       0.97509      0.7348       0
N927     N     0.8806       0.9157       0.74909      0
N928     N     0.82481      0.9343       0.7894       0
Zn116    Zn    0.8417       0.93441      0.74951      0
H767     H     0.7903       0.82441      0.7437       0
H768     H     0.8272       0            0.76631      0
H769     H     0.874        0.9482       0.6889       0
H770     H     0.94761      0.98169      0.77601      0
H771     H     0.78151      0.93839      0.78151      0
H772     H     0.88229      0.92649      0.80871      0
C1237    C     0.56889      0.20289      0.20289      0
C1238    C     0.61081      0.2229       0.2012       0
C1239    C     0.6348       0.2392       0.19539      0
N929     N     0.65809      0.2328       0.2125       0
C1240    C     0.49999      0.24839      0.1621       0
C1241    C     0.5151       0.2105       0.1394       0
C1242    C     0.531        0.18899      0.1266       0
N930     N     0.514        0.16751      0.11479      0
C1243    C     0.57151      0.2564       0.0928       0
N931     N     0.54301      0.2642       0.087        0
C1244    C     0.5378       0.271        0.05799      0
C1245    C     0.56399      0.2962       0.20379      0
C1246    C     0.56951      0.3167       0.16201      0
C1247    C     0.5729       0.32321      0.1327       0
N932     N     0.5754       0.35219      0.1274       0
N933     N     0.5838       0.22341      0.1882       0
N934     N     0.52491      0.2348       0.15409      0
N935     N     0.58431      0.2491       0.11939      0
N936     N     0.5657       0.28941      0.1752       0
Zn117    Zn    0.56559      0.24949      0.15829      0
H773     H     0.54879      0.199        0.199        0
H774     H     0.63531      0.2538       0.1805       0
H775     H     0.49999      0.26629      0.17281      0
H776     H     0.55181      0.18891      0.12601      0
H777     H     0.51829      0.27599      0.05241      0
H778     H     0.56159      0.28151      0.21851      0
H779     H     0.57349      0.30869      0.1177       0
C1248    C     0.56889      0.7971       0.7971       0
C1249    C     0.61081      0.77711      0.79879      0
C1250    C     0.6348       0.76079      0.8046       0
N937     N     0.65809      0.76721      0.78751      0
C1251    C     0.49999      0.7516       0.83789      0
C1252    C     0.5151       0.78951      0.86061      0
C1253    C     0.531        0.811        0.87341      0
N938     N     0.514        0.8325       0.88519      0
C1254    C     0.57151      0.74359      0.90721      0
N939     N     0.54301      0.73581      0.91299      0
C1255    C     0.5378       0.72899      0.942        0
C1256    C     0.56399      0.70381      0.7962       0
C1257    C     0.56951      0.68329      0.838        0
C1258    C     0.5729       0.6768       0.86729      0
N940     N     0.5754       0.6478       0.87259      0
N941     N     0.5838       0.7766       0.81181      0
N942     N     0.52491      0.76521      0.8459       0
N943     N     0.58431      0.75089      0.8806       0
N944     N     0.5657       0.71061      0.82481      0
Zn118    Zn    0.56559      0.7505       0.8417       0
H780     H     0.54879      0.80099      0.80099      0
H781     H     0.63531      0.74621      0.81951      0
H782     H     0.49999      0.7337       0.8272       0
H783     H     0.55181      0.81111      0.874        0
H784     H     0.51829      0.724        0.94761      0
H785     H     0.56159      0.7185       0.78151      0
H786     H     0.57349      0.6913       0.88229      0
C1259    C     0.4311       0.20289      0.7971       0
C1260    C     0.3892       0.2229       0.79879      0
C1261    C     0.36521      0.2392       0.8046       0
N945     N     0.3419       0.2328       0.78751      0
C1262    C     0.49999      0.24839      0.83789      0
C1263    C     0.48491      0.2105       0.86061      0
C1264    C     0.46901      0.18899      0.87341      0
N946     N     0.48601      0.16751      0.88519      0
C1265    C     0.4285       0.2564       0.90721      0
N947     N     0.457        0.2642       0.91299      0
C1266    C     0.46219      0.271        0.942        0
C1267    C     0.436        0.2962       0.7962       0
C1268    C     0.4305       0.3167       0.838        0
C1269    C     0.42709      0.32321      0.86729      0
N948     N     0.42461      0.35219      0.87259      0
N949     N     0.41621      0.22341      0.81181      0
N950     N     0.4751       0.2348       0.8459       0
N951     N     0.4157       0.2491       0.8806       0
N952     N     0.43431      0.28941      0.82481      0
Zn119    Zn    0.43439      0.24949      0.8417       0
H787     H     0.4512       0.199        0.80099      0
H788     H     0.3647       0.2538       0.81951      0
H789     H     0.49999      0.26629      0.8272       0
H790     H     0.4482       0.18891      0.874        0
H791     H     0.4817       0.27599      0.94761      0
H792     H     0.4384       0.28151      0.78151      0
H793     H     0.4265       0.30869      0.88229      0
C1270    C     0.4311       0.7971       0.20289      0
C1271    C     0.3892       0.77711      0.2012       0
C1272    C     0.36521      0.76079      0.19539      0
N953     N     0.3419       0.76721      0.2125       0
C1273    C     0.49999      0.7516       0.1621       0
C1274    C     0.48491      0.78951      0.1394       0
C1275    C     0.46901      0.811        0.1266       0
N954     N     0.48601      0.8325       0.11479      0
C1276    C     0.4285       0.74359      0.0928       0
N955     N     0.457        0.73581      0.087        0
C1277    C     0.46219      0.72899      0.05799      0
C1278    C     0.436        0.70381      0.20379      0
C1279    C     0.4305       0.68329      0.16201      0
C1280    C     0.42709      0.6768       0.1327       0
N956     N     0.42461      0.6478       0.1274       0
N957     N     0.41621      0.7766       0.1882       0
N958     N     0.4751       0.76521      0.15409      0
N959     N     0.4157       0.75089      0.11939      0
N960     N     0.43431      0.71061      0.1752       0
Zn120    Zn    0.43439      0.7505       0.15829      0
H794     H     0.4512       0.80099      0.199        0
H795     H     0.3647       0.74621      0.1805       0
H796     H     0.49999      0.7337       0.17281      0
H797     H     0.4482       0.81111      0.12601      0
H798     H     0.4817       0.724        0.05241      0
H799     H     0.4384       0.7185       0.21851      0
H800     H     0.4265       0.6913       0.1177       0
C1281    C     0.2012       0.77711      0.3892       0
N961     N     0.19539      0.76079      0.36521      0
C1282    C     0.2125       0.76721      0.3419       0
C1283    C     0.1394       0.78951      0.48491      0
N962     N     0.1266       0.811        0.46901      0
C1284    C     0.11479      0.8325       0.48601      0
C1285    C     0.0928       0.74359      0.4285       0
N963     N     0.087        0.73581      0.457        0
C1286    C     0.05799      0.72899      0.46219      0
C1287    C     0.16201      0.68329      0.4305       0
N964     N     0.1327       0.6768       0.42709      0
C1288    C     0.1274       0.6478       0.42461      0
N965     N     0.1882       0.7766       0.41621      0
N966     N     0.15409      0.76521      0.4751       0
N967     N     0.11939      0.75089      0.4157       0
N968     N     0.1752       0.71061      0.43431      0
Zn121    Zn    0.15829      0.7505       0.43439      0
H801     H     0.20971      0.7563       0.32439      0
H802     H     0.1058       0.84871      0.47631      0
H803     H     0.05241      0.724        0.4817       0
H804     H     0.10749      0.6416       0.4227       0
C1289    C     0.79879      0.2229       0.3892       0
N969     N     0.8046       0.2392       0.36521      0
C1290    C     0.78751      0.2328       0.3419       0
C1291    C     0.86061      0.2105       0.48491      0
N970     N     0.87341      0.18899      0.46901      0
C1292    C     0.88519      0.16751      0.48601      0
C1293    C     0.90721      0.2564       0.4285       0
N971     N     0.91299      0.2642       0.457        0
C1294    C     0.942        0.271        0.46219      0
C1295    C     0.838        0.3167       0.4305       0
N972     N     0.86729      0.32321      0.42709      0
C1296    C     0.87259      0.35219      0.42461      0
N973     N     0.81181      0.22341      0.41621      0
N974     N     0.8459       0.2348       0.4751       0
N975     N     0.8806       0.2491       0.4157       0
N976     N     0.82481      0.28941      0.43431      0
Zn122    Zn    0.8417       0.24949      0.43439      0
H805     H     0.7903       0.24371      0.32439      0
H806     H     0.89421      0.1513       0.47631      0
H807     H     0.94761      0.27599      0.4817       0
H808     H     0.8925       0.35839      0.4227       0
C1297    C     0.79879      0.77711      0.61081      0
N977     N     0.8046       0.76079      0.6348       0
C1298    C     0.78751      0.76721      0.65809      0
C1299    C     0.86061      0.78951      0.5151       0
N978     N     0.87341      0.811        0.531        0
C1300    C     0.88519      0.8325       0.514        0
C1301    C     0.90721      0.74359      0.57151      0
N979     N     0.91299      0.73581      0.54301      0
C1302    C     0.942        0.72899      0.5378       0
C1303    C     0.838        0.68329      0.56951      0
N980     N     0.86729      0.6768       0.5729       0
C1304    C     0.87259      0.6478       0.5754       0
N981     N     0.81181      0.7766       0.5838       0
N982     N     0.8459       0.76521      0.52491      0
N983     N     0.8806       0.75089      0.58431      0
N984     N     0.82481      0.71061      0.5657       0
Zn123    Zn    0.8417       0.7505       0.56559      0
H809     H     0.7903       0.7563       0.6756       0
H810     H     0.89421      0.84871      0.5237       0
H811     H     0.94761      0.724        0.51829      0
H812     H     0.8925       0.6416       0.57729      0
C1305    C     0.2012       0.2229       0.61081      0
N985     N     0.19539      0.2392       0.6348       0
C1306    C     0.2125       0.2328       0.65809      0
C1307    C     0.1394       0.2105       0.5151       0
N986     N     0.1266       0.18899      0.531        0
C1308    C     0.11479      0.16751      0.514        0
C1309    C     0.0928       0.2564       0.57151      0
N987     N     0.087        0.2642       0.54301      0
C1310    C     0.05799      0.271        0.5378       0
C1311    C     0.16201      0.3167       0.56951      0
N988     N     0.1327       0.32321      0.5729       0
C1312    C     0.1274       0.35219      0.5754       0
N989     N     0.1882       0.22341      0.5838       0
N990     N     0.15409      0.2348       0.52491      0
N991     N     0.11939      0.2491       0.58431      0
N992     N     0.1752       0.28941      0.5657       0
Zn124    Zn    0.15829      0.24949      0.56559      0
H813     H     0.20971      0.24371      0.6756       0
H814     H     0.1058       0.1513       0.5237       0
H815     H     0.05241      0.27599      0.51829      0
H816     H     0.10749      0.35839      0.57729      0
C1313    C     0.4311       0.70291      0.2971       0
C1314    C     0.3892       0.70119      0.27709      0
C1315    C     0.36521      0.69541      0.26079      0
N993     N     0.3419       0.7125       0.26719      0
C1316    C     0.48491      0.6394       0.28949      0
N994     N     0.46901      0.6266       0.311        0
C1317    C     0.48601      0.61479      0.33251      0
C1318    C     0.4285       0.5928       0.2436       0
N995     N     0.457        0.58699      0.23579      0
C1319    C     0.46219      0.55801      0.229        0
C1320    C     0.4305       0.662        0.1833       0
N996     N     0.42709      0.63269      0.17681      0
C1321    C     0.42461      0.62739      0.1478       0
N997     N     0.41621      0.6882       0.27661      0
N998     N     0.4751       0.65411      0.26519      0
N999     N     0.4157       0.61941      0.2509       0
N1000    N     0.43431      0.6752       0.21061      0
Zn125    Zn    0.43439      0.65831      0.2505       0
H817     H     0.4512       0.69899      0.301        0
H818     H     0.3647       0.6805       0.24619      0
H819     H     0.47631      0.60579      0.34869      0
H820     H     0.4817       0.5524       0.224        0
H821     H     0.4227       0.60751      0.1416       0
C1322    C     0.4311       0.2971       0.70291      0
C1323    C     0.3892       0.2988       0.7229       0
C1324    C     0.36521      0.3046       0.73919      0
N1001    N     0.3419       0.28749      0.73279      0
C1325    C     0.48491      0.36059      0.7105       0
N1002    N     0.46901      0.37339      0.68901      0
C1326    C     0.48601      0.3852       0.6675       0
C1327    C     0.4285       0.40719      0.75639      0
N1003    N     0.457        0.413        0.7642       0
C1328    C     0.46219      0.442        0.77099      0
C1329    C     0.4305       0.33801      0.81669      0
N1004    N     0.42709      0.3673       0.8232       0
C1330    C     0.42461      0.3726       0.85221      0
N1005    N     0.41621      0.31179      0.7234       0
N1006    N     0.4751       0.3459       0.7348       0
N1007    N     0.4157       0.3806       0.74909      0
N1008    N     0.43431      0.32479      0.7894       0
Zn126    Zn    0.43439      0.3417       0.74951      0
H822     H     0.4512       0.301        0.69899      0
H823     H     0.3647       0.31949      0.7538       0
H824     H     0.47631      0.39419      0.65129      0
H825     H     0.4817       0.44759      0.77601      0
H826     H     0.4227       0.3925       0.85841      0
C1331    C     0.56889      0.2971       0.2971       0
C1332    C     0.61081      0.2988       0.27709      0
C1333    C     0.6348       0.3046       0.26079      0
N1009    N     0.65809      0.28749      0.26719      0
C1334    C     0.5151       0.36059      0.28949      0
N1010    N     0.531        0.37339      0.311        0
C1335    C     0.514        0.3852       0.33251      0
C1336    C     0.57151      0.40719      0.2436       0
N1011    N     0.54301      0.413        0.23579      0
C1337    C     0.5378       0.442        0.229        0
C1338    C     0.56951      0.33801      0.1833       0
N1012    N     0.5729       0.3673       0.17681      0
C1339    C     0.5754       0.3726       0.1478       0
N1013    N     0.5838       0.31179      0.27661      0
N1014    N     0.52491      0.3459       0.26519      0
N1015    N     0.58431      0.3806       0.2509       0
N1016    N     0.5657       0.32479      0.21061      0
Zn127    Zn    0.56559      0.3417       0.2505       0
H827     H     0.54879      0.301        0.301        0
H828     H     0.63531      0.31949      0.24619      0
H829     H     0.5237       0.39419      0.34869      0
H830     H     0.51829      0.44759      0.224        0
H831     H     0.57729      0.3925       0.1416       0
C1340    C     0.56889      0.70291      0.70291      0
C1341    C     0.61081      0.70119      0.7229       0
C1342    C     0.6348       0.69541      0.73919      0
N1017    N     0.65809      0.7125       0.73279      0
C1343    C     0.5151       0.6394       0.7105       0
N1018    N     0.531        0.6266       0.68901      0
C1344    C     0.514        0.61479      0.6675       0
C1345    C     0.57151      0.5928       0.75639      0
N1019    N     0.54301      0.58699      0.7642       0
C1346    C     0.5378       0.55801      0.77099      0
C1347    C     0.56951      0.662        0.81669      0
N1020    N     0.5729       0.63269      0.8232       0
C1348    C     0.5754       0.62739      0.85221      0
N1021    N     0.5838       0.6882       0.7234       0
N1022    N     0.52491      0.65411      0.7348       0
N1023    N     0.58431      0.61941      0.74909      0
N1024    N     0.5657       0.6752       0.7894       0
Zn128    Zn    0.56559      0.65831      0.74951      0
H832     H     0.54879      0.69899      0.69899      0
H833     H     0.63531      0.6805       0.7538       0
H834     H     0.5237       0.60579      0.65129      0
H835     H     0.51829      0.5524       0.77601      0
H836     H     0.57729      0.60751      0.85841      0
C1349    C     0.27709      0.8892       0.2012       0
N1025    N     0.26079      0.8652       0.19539      0
C1350    C     0.26719      0.84189      0.2125       0
C1351    C     0.28949      0.9849       0.1394       0
N1026    N     0.311        0.969        0.1266       0
C1352    C     0.33251      0.986        0.11479      0
C1353    C     0.25459      0.88731      0.11271      0
C1354    C     0.2436       0.9285       0.0928       0
C1355    C     0.23579      0.957        0.087        0
N1027    N     0.229        0.96221      0.05799      0
C1356    C     0.1833       0.9305       0.16201      0
N1028    N     0.17681      0.92711      0.1327       0
C1357    C     0.1478       0.9246       0.1274       0
N1029    N     0.27661      0.9162       0.1882       0
N1030    N     0.26519      0.97509      0.15409      0
N1031    N     0.2509       0.9157       0.11939      0
N1032    N     0.21061      0.9343       0.1752       0
Zn129    Zn    0.2505       0.93441      0.15829      0
H837     H     0.25631      0.82441      0.20971      0
H838     H     0.34869      0.9763       0.1058       0
H839     H     0.25941      0.8729       0.12711      0
H840     H     0.2352       0.9718       0.10171      0
H841     H     0.1416       0.92269      0.10749      0
C1358    C     0.7229       0.8892       0.79879      0
N1033    N     0.73919      0.8652       0.8046       0
C1359    C     0.73279      0.84189      0.78751      0
C1360    C     0.7105       0.9849       0.86061      0
N1034    N     0.68901      0.969        0.87341      0
C1361    C     0.6675       0.986        0.88519      0
C1362    C     0.7454       0.88731      0.88731      0
C1363    C     0.75639      0.9285       0.90721      0
C1364    C     0.7642       0.957        0.91299      0
N1035    N     0.77099      0.96221      0.942        0
C1365    C     0.81669      0.9305       0.838        0
N1036    N     0.8232       0.92711      0.86729      0
C1366    C     0.85221      0.9246       0.87259      0
N1037    N     0.7234       0.9162       0.81181      0
N1038    N     0.7348       0.97509      0.8459       0
N1039    N     0.74909      0.9157       0.8806       0
N1040    N     0.7894       0.9343       0.82481      0
Zn130    Zn    0.74951      0.93441      0.8417       0
H842     H     0.7437       0.82441      0.7903       0
H843     H     0.65129      0.9763       0.89421      0
H844     H     0.7406       0.8729       0.8729       0
H845     H     0.76479      0.9718       0.8983       0
H846     H     0.85841      0.92269      0.8925       0
C1367    C     0.27709      0.11079      0.79879      0
N1041    N     0.26079      0.13481      0.8046       0
C1368    C     0.26719      0.1581       0.78751      0
C1369    C     0.28949      0.01511      0.86061      0
N1042    N     0.311        0.03101      0.87341      0
C1370    C     0.33251      0.01401      0.88519      0
C1371    C     0.25459      0.11271      0.88731      0
C1372    C     0.2436       0.07149      0.90721      0
C1373    C     0.23579      0.04299      0.91299      0
N1043    N     0.229        0.0378       0.942        0
C1374    C     0.1833       0.06949      0.838        0
N1044    N     0.17681      0.0729       0.86729      0
C1375    C     0.1478       0.07541      0.87259      0
N1045    N     0.27661      0.08381      0.81181      0
N1046    N     0.26519      0.02489      0.8459       0
N1047    N     0.2509       0.08429      0.8806       0
N1048    N     0.21061      0.06571      0.82481      0
Zn131    Zn    0.2505       0.0656       0.8417       0
H847     H     0.25631      0.1756       0.7903       0
H848     H     0.34869      0.02371      0.89421      0
H849     H     0.25941      0.12711      0.8729       0
H850     H     0.2352       0.02819      0.8983       0
H851     H     0.1416       0.0773       0.8925       0
C1376    C     0.7229       0.11079      0.2012       0
N1049    N     0.73919      0.13481      0.19539      0
C1377    C     0.73279      0.1581       0.2125       0
C1378    C     0.7105       0.01511      0.1394       0
N1050    N     0.68901      0.03101      0.1266       0
C1379    C     0.6675       0.01401      0.11479      0
C1380    C     0.7454       0.11271      0.11271      0
C1381    C     0.75639      0.07149      0.0928       0
C1382    C     0.7642       0.04299      0.087        0
N1051    N     0.77099      0.0378       0.05799      0
C1383    C     0.81669      0.06949      0.16201      0
N1052    N     0.8232       0.0729       0.1327       0
C1384    C     0.85221      0.07541      0.1274       0
N1053    N     0.7234       0.08381      0.1882       0
N1054    N     0.7348       0.02489      0.15409      0
N1055    N     0.74909      0.08429      0.11939      0
N1056    N     0.7894       0.06571      0.1752       0
Zn132    Zn    0.74951      0.0656       0.15829      0
H852     H     0.7437       0.1756       0.20971      0
H853     H     0.65129      0.02371      0.1058       0
H854     H     0.7406       0.12711      0.12711      0
H855     H     0.76479      0.02819      0.10171      0
H856     H     0.85841      0.0773       0.10749      0
C1385    C     0.27709      0.70119      0.61081      0
N1057    N     0.26079      0.69541      0.6348       0
C1386    C     0.26719      0.7125       0.65809      0
C1387    C     0.28949      0.6394       0.5151       0
N1058    N     0.311        0.6266       0.531        0
C1388    C     0.33251      0.61479      0.514        0
C1389    C     0.25459      0.6127       0.6127       0
C1390    C     0.2436       0.5928       0.57151      0
C1391    C     0.23579      0.58699      0.54301      0
N1059    N     0.229        0.55801      0.5378       0
C1392    C     0.1833       0.662        0.56951      0
N1060    N     0.17681      0.63269      0.5729       0
C1393    C     0.1478       0.62739      0.5754       0
N1061    N     0.27661      0.6882       0.5838       0
N1062    N     0.26519      0.65411      0.52491      0
N1063    N     0.2509       0.61941      0.58431      0
N1064    N     0.21061      0.6752       0.5657       0
Zn133    Zn    0.2505       0.65831      0.56559      0
H857     H     0.25631      0.7097       0.6756       0
H858     H     0.34869      0.60579      0.5237       0
H859     H     0.25941      0.6271       0.6271       0
H860     H     0.2352       0.6017       0.52821      0
H861     H     0.1416       0.60751      0.57729      0
C1394    C     0.7229       0.2988       0.61081      0
N1065    N     0.73919      0.3046       0.6348       0
C1395    C     0.73279      0.28749      0.65809      0
C1396    C     0.7105       0.36059      0.5151       0
N1066    N     0.68901      0.37339      0.531        0
C1397    C     0.6675       0.3852       0.514        0
C1398    C     0.7454       0.38729      0.6127       0
C1399    C     0.75639      0.40719      0.57151      0
C1400    C     0.7642       0.413        0.54301      0
N1067    N     0.77099      0.442        0.5378       0
C1401    C     0.81669      0.33801      0.56951      0
N1068    N     0.8232       0.3673       0.5729       0
C1402    C     0.85221      0.3726       0.5754       0
N1069    N     0.7234       0.31179      0.5838       0
N1070    N     0.7348       0.3459       0.52491      0
N1071    N     0.74909      0.3806       0.58431      0
N1072    N     0.7894       0.32479      0.5657       0
Zn134    Zn    0.74951      0.3417       0.56559      0
H862     H     0.7437       0.29031      0.6756       0
H863     H     0.65129      0.39419      0.5237       0
H864     H     0.7406       0.37291      0.6271       0
H865     H     0.76479      0.39831      0.52821      0
H866     H     0.85841      0.3925       0.57729      0
C1403    C     0.27709      0.2988       0.3892       0
N1073    N     0.26079      0.3046       0.36521      0
C1404    C     0.26719      0.28749      0.3419       0
C1405    C     0.28949      0.36059      0.48491      0
N1074    N     0.311        0.37339      0.46901      0
C1406    C     0.33251      0.3852       0.48601      0
C1407    C     0.25459      0.38729      0.38729      0
C1408    C     0.2436       0.40719      0.4285       0
C1409    C     0.23579      0.413        0.457        0
N1075    N     0.229        0.442        0.46219      0
C1410    C     0.1833       0.33801      0.4305       0
N1076    N     0.17681      0.3673       0.42709      0
C1411    C     0.1478       0.3726       0.42461      0
N1077    N     0.27661      0.31179      0.41621      0
N1078    N     0.26519      0.3459       0.4751       0
N1079    N     0.2509       0.3806       0.4157       0
N1080    N     0.21061      0.32479      0.43431      0
Zn135    Zn    0.2505       0.3417       0.43439      0
H867     H     0.25631      0.29031      0.32439      0
H868     H     0.34869      0.39419      0.47631      0
H869     H     0.25941      0.37291      0.37291      0
H870     H     0.2352       0.39831      0.4718       0
H871     H     0.1416       0.3925       0.4227       0
C1412    C     0.7229       0.70119      0.3892       0
N1081    N     0.73919      0.69541      0.36521      0
C1413    C     0.73279      0.7125       0.3419       0
C1414    C     0.7105       0.6394       0.48491      0
N1082    N     0.68901      0.6266       0.46901      0
C1415    C     0.6675       0.61479      0.48601      0
C1416    C     0.7454       0.6127       0.38729      0
C1417    C     0.75639      0.5928       0.4285       0
C1418    C     0.7642       0.58699      0.457        0
N1083    N     0.77099      0.55801      0.46219      0
C1419    C     0.81669      0.662        0.4305       0
N1084    N     0.8232       0.63269      0.42709      0
C1420    C     0.85221      0.62739      0.42461      0
N1085    N     0.7234       0.6882       0.41621      0
N1086    N     0.7348       0.65411      0.4751       0
N1087    N     0.74909      0.61941      0.4157       0
N1088    N     0.7894       0.6752       0.43431      0
Zn136    Zn    0.74951      0.65831      0.43439      0
H872     H     0.7437       0.7097       0.32439      0
H873     H     0.65129      0.60579      0.47631      0
H874     H     0.7406       0.6271       0.37291      0
H875     H     0.76479      0.6017       0.4718       0
H876     H     0.85841      0.60751      0.4227       0
C1421    C     0.2012       0.8892       0.7229       0
N1089    N     0.19539      0.8652       0.73919      0
C1422    C     0.2125       0.84189      0.73279      0
C1423    C     0.1394       0.9849       0.7105       0
N1090    N     0.1266       0.969        0.68901      0
C1424    C     0.11479      0.986        0.6675       0
C1425    C     0.0928       0.9285       0.75639      0
N1091    N     0.087        0.957        0.7642       0
C1426    C     0.05799      0.96221      0.77099      0
C1427    C     0.16201      0.9305       0.81669      0
N1092    N     0.1327       0.92711      0.8232       0
C1428    C     0.1274       0.9246       0.85221      0
N1093    N     0.1882       0.9162       0.7234       0
N1094    N     0.15409      0.97509      0.7348       0
N1095    N     0.11939      0.9157       0.74909      0
N1096    N     0.1752       0.9343       0.7894       0
Zn137    Zn    0.15829      0.93441      0.74951      0
H877     H     0.20971      0.82441      0.7437       0
H878     H     0.1058       0.9763       0.65129      0
H879     H     0.05241      0.98169      0.77601      0
H880     H     0.10749      0.92269      0.85841      0
C1429    C     0.79879      0.8892       0.27709      0
N1097    N     0.8046       0.8652       0.26079      0
C1430    C     0.78751      0.84189      0.26719      0
C1431    C     0.86061      0.9849       0.28949      0
N1098    N     0.87341      0.969        0.311        0
C1432    C     0.88519      0.986        0.33251      0
C1433    C     0.90721      0.9285       0.2436       0
N1099    N     0.91299      0.957        0.23579      0
C1434    C     0.942        0.96221      0.229        0
C1435    C     0.838        0.9305       0.1833       0
N1100    N     0.86729      0.92711      0.17681      0
C1436    C     0.87259      0.9246       0.1478       0
N1101    N     0.81181      0.9162       0.27661      0
N1102    N     0.8459       0.97509      0.26519      0
N1103    N     0.8806       0.9157       0.2509       0
N1104    N     0.82481      0.9343       0.21061      0
Zn138    Zn    0.8417       0.93441      0.2505       0
H881     H     0.7903       0.82441      0.25631      0
H882     H     0.89421      0.9763       0.34869      0
H883     H     0.94761      0.98169      0.224        0
H884     H     0.8925       0.92269      0.1416       0
C1437    C     0.79879      0.11079      0.7229       0
N1105    N     0.8046       0.13481      0.73919      0
C1438    C     0.78751      0.1581       0.73279      0
C1439    C     0.86061      0.01511      0.7105       0
N1106    N     0.87341      0.03101      0.68901      0
C1440    C     0.88519      0.01401      0.6675       0
C1441    C     0.90721      0.07149      0.75639      0
N1107    N     0.91299      0.04299      0.7642       0
C1442    C     0.942        0.0378       0.77099      0
C1443    C     0.838        0.06949      0.81669      0
N1108    N     0.86729      0.0729       0.8232       0
C1444    C     0.87259      0.07541      0.85221      0
N1109    N     0.81181      0.08381      0.7234       0
N1110    N     0.8459       0.02489      0.7348       0
N1111    N     0.8806       0.08429      0.74909      0
N1112    N     0.82481      0.06571      0.7894       0
Zn139    Zn    0.8417       0.0656       0.74951      0
H885     H     0.7903       0.1756       0.7437       0
H886     H     0.89421      0.02371      0.65129      0
H887     H     0.94761      0.0183       0.77601      0
H888     H     0.8925       0.0773       0.85841      0
C1445    C     0.2012       0.11079      0.27709      0
N1113    N     0.19539      0.13481      0.26079      0
C1446    C     0.2125       0.1581       0.26719      0
C1447    C     0.1394       0.01511      0.28949      0
N1114    N     0.1266       0.03101      0.311        0
C1448    C     0.11479      0.01401      0.33251      0
C1449    C     0.0928       0.07149      0.2436       0
N1115    N     0.087        0.04299      0.23579      0
C1450    C     0.05799      0.0378       0.229        0
C1451    C     0.16201      0.06949      0.1833       0
N1116    N     0.1327       0.0729       0.17681      0
C1452    C     0.1274       0.07541      0.1478       0
N1117    N     0.1882       0.08381      0.27661      0
N1118    N     0.15409      0.02489      0.26519      0
N1119    N     0.11939      0.08429      0.2509       0
N1120    N     0.1752       0.06571      0.21061      0
Zn140    Zn    0.15829      0.0656       0.2505       0
H889     H     0.20971      0.1756       0.25631      0
H890     H     0.1058       0.02371      0.34869      0
H891     H     0.05241      0.0183       0.224        0
H892     H     0.10749      0.0773       0.1416       0
C1453    C     0.4311       0.7971       0.7971       0
C1454    C     0.3892       0.77711      0.79879      0
C1455    C     0.36521      0.76079      0.8046       0
N1121    N     0.3419       0.76721      0.78751      0
C1456    C     0.48491      0.78951      0.86061      0
N1122    N     0.46901      0.811        0.87341      0
C1457    C     0.48601      0.8325       0.88519      0
C1458    C     0.4285       0.74359      0.90721      0
N1123    N     0.457        0.73581      0.91299      0
C1459    C     0.46219      0.72899      0.942        0
C1460    C     0.4305       0.68329      0.838        0
N1124    N     0.42709      0.6768       0.86729      0
C1461    C     0.42461      0.6478       0.87259      0
N1125    N     0.41621      0.7766       0.81181      0
N1126    N     0.4751       0.76521      0.8459       0
N1127    N     0.4157       0.75089      0.8806       0
N1128    N     0.43431      0.71061      0.82481      0
Zn141    Zn    0.43439      0.7505       0.8417       0
H893     H     0.4512       0.80099      0.80099      0
H894     H     0.3647       0.74621      0.81951      0
H895     H     0.47631      0.84871      0.89421      0
H896     H     0.4817       0.724        0.94761      0
H897     H     0.4227       0.6416       0.8925       0
C1462    C     0.4311       0.20289      0.20289      0
C1463    C     0.3892       0.2229       0.2012       0
C1464    C     0.36521      0.2392       0.19539      0
N1129    N     0.3419       0.2328       0.2125       0
C1465    C     0.48491      0.2105       0.1394       0
N1130    N     0.46901      0.18899      0.1266       0
C1466    C     0.48601      0.16751      0.11479      0
C1467    C     0.4285       0.2564       0.0928       0
N1131    N     0.457        0.2642       0.087        0
C1468    C     0.46219      0.271        0.05799      0
C1469    C     0.4305       0.3167       0.16201      0
N1132    N     0.42709      0.32321      0.1327       0
C1470    C     0.42461      0.35219      0.1274       0
N1133    N     0.41621      0.22341      0.1882       0
N1134    N     0.4751       0.2348       0.15409      0
N1135    N     0.4157       0.2491       0.11939      0
N1136    N     0.43431      0.28941      0.1752       0
Zn142    Zn    0.43439      0.24949      0.15829      0
H898     H     0.4512       0.199        0.199        0
H899     H     0.3647       0.2538       0.1805       0
H900     H     0.47631      0.1513       0.1058       0
H901     H     0.4817       0.27599      0.05241      0
H902     H     0.4227       0.35839      0.10749      0
C1471    C     0.56889      0.7971       0.20289      0
C1472    C     0.61081      0.77711      0.2012       0
C1473    C     0.6348       0.76079      0.19539      0
N1137    N     0.65809      0.76721      0.2125       0
C1474    C     0.5151       0.78951      0.1394       0
N1138    N     0.531        0.811        0.1266       0
C1475    C     0.514        0.8325       0.11479      0
C1476    C     0.57151      0.74359      0.0928       0
N1139    N     0.54301      0.73581      0.087        0
C1477    C     0.5378       0.72899      0.05799      0
C1478    C     0.56951      0.68329      0.16201      0
N1140    N     0.5729       0.6768       0.1327       0
C1479    C     0.5754       0.6478       0.1274       0
N1141    N     0.5838       0.7766       0.1882       0
N1142    N     0.52491      0.76521      0.15409      0
N1143    N     0.58431      0.75089      0.11939      0
N1144    N     0.5657       0.71061      0.1752       0
Zn143    Zn    0.56559      0.7505       0.15829      0
H903     H     0.54879      0.80099      0.199        0
H904     H     0.63531      0.74621      0.1805       0
H905     H     0.5237       0.84871      0.1058       0
H906     H     0.51829      0.724        0.05241      0
H907     H     0.57729      0.6416       0.10749      0
C1480    C     0.56889      0.20289      0.7971       0
C1481    C     0.61081      0.2229       0.79879      0
C1482    C     0.6348       0.2392       0.8046       0
N1145    N     0.65809      0.2328       0.78751      0
C1483    C     0.5151       0.2105       0.86061      0
N1146    N     0.531        0.18899      0.87341      0
C1484    C     0.514        0.16751      0.88519      0
C1485    C     0.57151      0.2564       0.90721      0
N1147    N     0.54301      0.2642       0.91299      0
C1486    C     0.5378       0.271        0.942        0
C1487    C     0.56951      0.3167       0.838        0
N1148    N     0.5729       0.32321      0.86729      0
C1488    C     0.5754       0.35219      0.87259      0
N1149    N     0.5838       0.22341      0.81181      0
N1150    N     0.52491      0.2348       0.8459       0
N1151    N     0.58431      0.2491       0.8806       0
N1152    N     0.5657       0.28941      0.82481      0
Zn144    Zn    0.56559      0.24949      0.8417       0
H908     H     0.54879      0.199        0.80099      0
H909     H     0.63531      0.2538       0.81951      0
H910     H     0.5237       0.1513       0.89421      0
H911     H     0.51829      0.27599      0.94761      0
H912     H     0.57729      0.35839      0.8925       0
C1489    C     0.79879      0.7229       0.11079      0
N1153    N     0.8046       0.73919      0.13481      0
C1490    C     0.78751      0.73279      0.1581       0
C1491    C     0.83789      0.74841      0            0
C1492    C     0.86061      0.7105       0.01511      0
C1493    C     0.87341      0.68901      0.03101      0
N1154    N     0.88519      0.6675       0.01401      0
C1494    C     0.90721      0.75639      0.07149      0
N1155    N     0.91299      0.7642       0.04299      0
C1495    C     0.942        0.77099      0.0378       0
C1496    C     0.7962       0.7962       0.06399      0
C1497    C     0.838        0.81669      0.06949      0
C1498    C     0.86729      0.8232       0.0729       0
N1156    N     0.87259      0.85221      0.07541      0
N1157    N     0.81181      0.7234       0.08381      0
N1158    N     0.8459       0.7348       0.02489      0
N1159    N     0.8806       0.74909      0.08429      0
N1160    N     0.82481      0.7894       0.06571      0
Zn145    Zn    0.8417       0.74951      0.0656       0
H913     H     0.7903       0.7437       0.1756       0
H914     H     0.8272       0.76631      0            0
H915     H     0.874        0.6889       0.05179      0
H916     H     0.94761      0.77601      0.0183       0
H917     H     0.78151      0.78151      0.0616       0
H918     H     0.88229      0.80871      0.07349      0
C1499    C     0.2012       0.27709      0.11079      0
N1161    N     0.19539      0.26079      0.13481      0
C1500    C     0.2125       0.26719      0.1581       0
C1501    C     0.1621       0.2516       0            0
C1502    C     0.1394       0.28949      0.01511      0
C1503    C     0.1266       0.311        0.03101      0
N1162    N     0.11479      0.33251      0.01401      0
C1504    C     0.0928       0.2436       0.07149      0
N1163    N     0.087        0.23579      0.04299      0
C1505    C     0.05799      0.229        0.0378       0
C1506    C     0.20379      0.20379      0.06399      0
C1507    C     0.16201      0.1833       0.06949      0
C1508    C     0.1327       0.17681      0.0729       0
N1164    N     0.1274       0.1478       0.07541      0
N1165    N     0.1882       0.27661      0.08381      0
N1166    N     0.15409      0.26519      0.02489      0
N1167    N     0.11939      0.2509       0.08429      0
N1168    N     0.1752       0.21061      0.06571      0
Zn146    Zn    0.15829      0.2505       0.0656       0
H919     H     0.20971      0.25631      0.1756       0
H920     H     0.17281      0.2337       0            0
H921     H     0.12601      0.31109      0.05179      0
H922     H     0.05241      0.224        0.0183       0
H923     H     0.21851      0.21851      0.0616       0
H924     H     0.1177       0.1913       0.07349      0
C1509    C     0.2012       0.7229       0.8892       0
N1169    N     0.19539      0.73919      0.8652       0
C1510    C     0.2125       0.73279      0.84189      0
C1511    C     0.1621       0.74841      0            0
C1512    C     0.1394       0.7105       0.9849       0
C1513    C     0.1266       0.68901      0.969        0
N1170    N     0.11479      0.6675       0.986        0
C1514    C     0.0928       0.75639      0.9285       0
N1171    N     0.087        0.7642       0.957        0
C1515    C     0.05799      0.77099      0.96221      0
C1516    C     0.20379      0.7962       0.93599      0
C1517    C     0.16201      0.81669      0.9305       0
C1518    C     0.1327       0.8232       0.92711      0
N1172    N     0.1274       0.85221      0.9246       0
N1173    N     0.1882       0.7234       0.9162       0
N1174    N     0.15409      0.7348       0.97509      0
N1175    N     0.11939      0.74909      0.9157       0
N1176    N     0.1752       0.7894       0.9343       0
Zn147    Zn    0.15829      0.74951      0.93441      0
H925     H     0.20971      0.7437       0.82441      0
H926     H     0.17281      0.76631      0            0
H927     H     0.12601      0.6889       0.9482       0
H928     H     0.05241      0.77601      0.98169      0
H929     H     0.21851      0.78151      0.93839      0
H930     H     0.1177       0.80871      0.92649      0
C1519    C     0.79879      0.27709      0.8892       0
N1177    N     0.8046       0.26079      0.8652       0
C1520    C     0.78751      0.26719      0.84189      0
C1521    C     0.83789      0.2516       0            0
C1522    C     0.86061      0.28949      0.9849       0
C1523    C     0.87341      0.311        0.969        0
N1178    N     0.88519      0.33251      0.986        0
C1524    C     0.90721      0.2436       0.9285       0
N1179    N     0.91299      0.23579      0.957        0
C1525    C     0.942        0.229        0.96221      0
C1526    C     0.7962       0.20379      0.93599      0
C1527    C     0.838        0.1833       0.9305       0
C1528    C     0.86729      0.17681      0.92711      0
N1180    N     0.87259      0.1478       0.9246       0
N1181    N     0.81181      0.27661      0.9162       0
N1182    N     0.8459       0.26519      0.97509      0
N1183    N     0.8806       0.2509       0.9157       0
N1184    N     0.82481      0.21061      0.9343       0
Zn148    Zn    0.8417       0.2505       0.93441      0
H931     H     0.7903       0.25631      0.82441      0
H932     H     0.8272       0.2337       0            0
H933     H     0.874        0.31109      0.9482       0
H934     H     0.94761      0.224        0.98169      0
H935     H     0.78151      0.21851      0.93839      0
H936     H     0.88229      0.1913       0.92649      0
C1529    C     0.61081      0.79879      0.2229       0
N1185    N     0.6348       0.8046       0.2392       0
C1530    C     0.65809      0.78751      0.2328       0
C1531    C     0.49999      0.83789      0.24839      0
C1532    C     0.5151       0.86061      0.2105       0
C1533    C     0.531        0.87341      0.18899      0
N1186    N     0.514        0.88519      0.16751      0
C1534    C     0.57151      0.90721      0.2564       0
N1187    N     0.54301      0.91299      0.2642       0
C1535    C     0.5378       0.942        0.271        0
C1536    C     0.56399      0.7962       0.2962       0
C1537    C     0.56951      0.838        0.3167       0
C1538    C     0.5729       0.86729      0.32321      0
N1188    N     0.5754       0.87259      0.35219      0
N1189    N     0.5838       0.81181      0.22341      0
N1190    N     0.52491      0.8459       0.2348       0
N1191    N     0.58431      0.8806       0.2491       0
N1192    N     0.5657       0.82481      0.28941      0
Zn149    Zn    0.56559      0.8417       0.24949      0
H937     H     0.6756       0.7903       0.24371      0
H938     H     0.49999      0.8272       0.26629      0
H939     H     0.55181      0.874        0.18891      0
H940     H     0.51829      0.94761      0.27599      0
H941     H     0.56159      0.78151      0.28151      0
H942     H     0.57349      0.88229      0.30869      0
C1539    C     0.61081      0.2012       0.77711      0
N1193    N     0.6348       0.19539      0.76079      0
C1540    C     0.65809      0.2125       0.76721      0
C1541    C     0.49999      0.1621       0.7516       0
C1542    C     0.5151       0.1394       0.78951      0
C1543    C     0.531        0.1266       0.811        0
N1194    N     0.514        0.11479      0.8325       0
C1544    C     0.57151      0.0928       0.74359      0
N1195    N     0.54301      0.087        0.73581      0
C1545    C     0.5378       0.05799      0.72899      0
C1546    C     0.56399      0.20379      0.70381      0
C1547    C     0.56951      0.16201      0.68329      0
C1548    C     0.5729       0.1327       0.6768       0
N1196    N     0.5754       0.1274       0.6478       0
N1197    N     0.5838       0.1882       0.7766       0
N1198    N     0.52491      0.15409      0.76521      0
N1199    N     0.58431      0.11939      0.75089      0
N1200    N     0.5657       0.1752       0.71061      0
Zn150    Zn    0.56559      0.15829      0.7505       0
H943     H     0.6756       0.20971      0.7563       0
H944     H     0.49999      0.17281      0.7337       0
H945     H     0.55181      0.12601      0.81111      0
H946     H     0.51829      0.05241      0.724        0
H947     H     0.56159      0.21851      0.7185       0
H948     H     0.57349      0.1177       0.6913       0
C1549    C     0.3892       0.2012       0.2229       0
N1201    N     0.36521      0.19539      0.2392       0
C1550    C     0.3419       0.2125       0.2328       0
C1551    C     0.49999      0.1621       0.24839      0
C1552    C     0.48491      0.1394       0.2105       0
C1553    C     0.46901      0.1266       0.18899      0
N1202    N     0.48601      0.11479      0.16751      0
C1554    C     0.4285       0.0928       0.2564       0
N1203    N     0.457        0.087        0.2642       0
C1555    C     0.46219      0.05799      0.271        0
C1556    C     0.436        0.20379      0.2962       0
C1557    C     0.4305       0.16201      0.3167       0
C1558    C     0.42709      0.1327       0.32321      0
N1204    N     0.42461      0.1274       0.35219      0
N1205    N     0.41621      0.1882       0.22341      0
N1206    N     0.4751       0.15409      0.2348       0
N1207    N     0.4157       0.11939      0.2491       0
N1208    N     0.43431      0.1752       0.28941      0
Zn151    Zn    0.43439      0.15829      0.24949      0
H949     H     0.32439      0.20971      0.24371      0
H950     H     0.49999      0.17281      0.26629      0
H951     H     0.4482       0.12601      0.18891      0
H952     H     0.4817       0.05241      0.27599      0
H953     H     0.4384       0.21851      0.28151      0
H954     H     0.4265       0.1177       0.30869      0
C1559    C     0.3892       0.79879      0.77711      0
N1209    N     0.36521      0.8046       0.76079      0
C1560    C     0.3419       0.78751      0.76721      0
C1561    C     0.49999      0.83789      0.7516       0
C1562    C     0.48491      0.86061      0.78951      0
C1563    C     0.46901      0.87341      0.811        0
N1210    N     0.48601      0.88519      0.8325       0
C1564    C     0.4285       0.90721      0.74359      0
N1211    N     0.457        0.91299      0.73581      0
C1565    C     0.46219      0.942        0.72899      0
C1566    C     0.436        0.7962       0.70381      0
C1567    C     0.4305       0.838        0.68329      0
C1568    C     0.42709      0.86729      0.6768       0
N1212    N     0.42461      0.87259      0.6478       0
N1213    N     0.41621      0.81181      0.7766       0
N1214    N     0.4751       0.8459       0.76521      0
N1215    N     0.4157       0.8806       0.75089      0
N1216    N     0.43431      0.82481      0.71061      0
Zn152    Zn    0.43439      0.8417       0.7505       0
H955     H     0.32439      0.7903       0.7563       0
H956     H     0.49999      0.8272       0.7337       0
H957     H     0.4482       0.874        0.81111      0
H958     H     0.4817       0.94761      0.724        0
H959     H     0.4384       0.78151      0.7185       0
H960     H     0.4265       0.88229      0.6913       0
C1569    C     0.7229       0.61081      0.2988       0
N1217    N     0.73919      0.6348       0.3046       0
C1570    C     0.73279      0.65809      0.28749      0
C1571    C     0.74841      0.49999      0.3379       0
C1572    C     0.7105       0.5151       0.36059      0
C1573    C     0.68901      0.531        0.37339      0
N1218    N     0.6675       0.514        0.3852       0
C1574    C     0.75639      0.57151      0.40719      0
N1219    N     0.7642       0.54301      0.413        0
C1575    C     0.77099      0.5378       0.442        0
C1576    C     0.7962       0.56399      0.2962       0
C1577    C     0.81669      0.56951      0.33801      0
C1578    C     0.8232       0.5729       0.3673       0
N1220    N     0.85221      0.5754       0.3726       0
N1221    N     0.7234       0.5838       0.31179      0
N1222    N     0.7348       0.52491      0.3459       0
N1223    N     0.74909      0.58431      0.3806       0
N1224    N     0.7894       0.5657       0.32479      0
Zn153    Zn    0.74951      0.56559      0.3417       0
H961     H     0.7437       0.6756       0.29031      0
H962     H     0.76631      0.49999      0.32721      0
H963     H     0.6889       0.55181      0.37401      0
H964     H     0.77601      0.51829      0.44759      0
H965     H     0.78151      0.56159      0.28151      0
H966     H     0.80871      0.57349      0.3823       0
C1579    C     0.27709      0.61081      0.70119      0
N1225    N     0.26079      0.6348       0.69541      0
C1580    C     0.26719      0.65809      0.7125       0
C1581    C     0.2516       0.49999      0.66209      0
C1582    C     0.28949      0.5151       0.6394       0
C1583    C     0.311        0.531        0.6266       0
N1226    N     0.33251      0.514        0.61479      0
C1584    C     0.2436       0.57151      0.5928       0
N1227    N     0.23579      0.54301      0.58699      0
C1585    C     0.229        0.5378       0.55801      0
C1586    C     0.20379      0.56399      0.70381      0
C1587    C     0.1833       0.56951      0.662        0
C1588    C     0.17681      0.5729       0.63269      0
N1228    N     0.1478       0.5754       0.62739      0
N1229    N     0.27661      0.5838       0.6882       0
N1230    N     0.26519      0.52491      0.65411      0
N1231    N     0.2509       0.58431      0.61941      0
N1232    N     0.21061      0.5657       0.6752       0
Zn154    Zn    0.2505       0.56559      0.65831      0
H967     H     0.25631      0.6756       0.7097       0
H968     H     0.2337       0.49999      0.6728       0
H969     H     0.31109      0.55181      0.626        0
H970     H     0.224        0.51829      0.5524       0
H971     H     0.21851      0.56159      0.7185       0
H972     H     0.1913       0.57349      0.61769      0
C1589    C     0.7229       0.3892       0.70119      0
N1233    N     0.73919      0.36521      0.69541      0
C1590    C     0.73279      0.3419       0.7125       0
C1591    C     0.74841      0.49999      0.66209      0
C1592    C     0.7105       0.48491      0.6394       0
C1593    C     0.68901      0.46901      0.6266       0
N1234    N     0.6675       0.48601      0.61479      0
C1594    C     0.75639      0.4285       0.5928       0
N1235    N     0.7642       0.457        0.58699      0
C1595    C     0.77099      0.46219      0.55801      0
C1596    C     0.7962       0.436        0.70381      0
C1597    C     0.81669      0.4305       0.662        0
C1598    C     0.8232       0.42709      0.63269      0
N1236    N     0.85221      0.42461      0.62739      0
N1237    N     0.7234       0.41621      0.6882       0
N1238    N     0.7348       0.4751       0.65411      0
N1239    N     0.74909      0.4157       0.61941      0
N1240    N     0.7894       0.43431      0.6752       0
Zn155    Zn    0.74951      0.43439      0.65831      0
H973     H     0.7437       0.32439      0.7097       0
H974     H     0.76631      0.49999      0.6728       0
H975     H     0.6889       0.4482       0.626        0
H976     H     0.77601      0.4817       0.5524       0
H977     H     0.78151      0.4384       0.7185       0
H978     H     0.80871      0.4265       0.61769      0
C1599    C     0.27709      0.3892       0.2988       0
N1241    N     0.26079      0.36521      0.3046       0
C1600    C     0.26719      0.3419       0.28749      0
C1601    C     0.2516       0.49999      0.3379       0
C1602    C     0.28949      0.48491      0.36059      0
C1603    C     0.311        0.46901      0.37339      0
N1242    N     0.33251      0.48601      0.3852       0
C1604    C     0.2436       0.4285       0.40719      0
N1243    N     0.23579      0.457        0.413        0
C1605    C     0.229        0.46219      0.442        0
C1606    C     0.20379      0.436        0.2962       0
C1607    C     0.1833       0.4305       0.33801      0
C1608    C     0.17681      0.42709      0.3673       0
N1244    N     0.1478       0.42461      0.3726       0
N1245    N     0.27661      0.41621      0.31179      0
N1246    N     0.26519      0.4751       0.3459       0
N1247    N     0.2509       0.4157       0.3806       0
N1248    N     0.21061      0.43431      0.32479      0
Zn156    Zn    0.2505       0.43439      0.3417       0
H979     H     0.25631      0.32439      0.29031      0
H980     H     0.2337       0.49999      0.32721      0
H981     H     0.31109      0.4482       0.37401      0
H982     H     0.224        0.4817       0.44759      0
H983     H     0.21851      0.4384       0.28151      0
H984     H     0.1913       0.4265       0.3823       0
C1609    C     0.7229       0.79879      0.8892       0
N1249    N     0.73919      0.8046       0.8652       0
C1610    C     0.73279      0.78751      0.84189      0
C1611    C     0.74841      0.83789      0            0
C1612    C     0.7105       0.86061      0.9849       0
C1613    C     0.68901      0.87341      0.969        0
N1250    N     0.6675       0.88519      0.986        0
C1614    C     0.75639      0.90721      0.9285       0
N1251    N     0.7642       0.91299      0.957        0
C1615    C     0.77099      0.942        0.96221      0
C1616    C     0.7962       0.7962       0.93599      0
C1617    C     0.81669      0.838        0.9305       0
C1618    C     0.8232       0.86729      0.92711      0
N1252    N     0.85221      0.87259      0.9246       0
N1253    N     0.7234       0.81181      0.9162       0
N1254    N     0.7348       0.8459       0.97509      0
N1255    N     0.74909      0.8806       0.9157       0
N1256    N     0.7894       0.82481      0.9343       0
Zn157    Zn    0.74951      0.8417       0.93441      0
H985     H     0.7437       0.7903       0.82441      0
H986     H     0.76631      0.8272       0            0
H987     H     0.6889       0.874        0.9482       0
H988     H     0.77601      0.94761      0.98169      0
H989     H     0.78151      0.78151      0.93839      0
H990     H     0.80871      0.88229      0.92649      0
C1619    C     0.27709      0.2012       0.8892       0
N1257    N     0.26079      0.19539      0.8652       0
C1620    C     0.26719      0.2125       0.84189      0
C1621    C     0.2516       0.1621       0            0
C1622    C     0.28949      0.1394       0.9849       0
C1623    C     0.311        0.1266       0.969        0
N1258    N     0.33251      0.11479      0.986        0
C1624    C     0.2436       0.0928       0.9285       0
N1259    N     0.23579      0.087        0.957        0
C1625    C     0.229        0.05799      0.96221      0
C1626    C     0.20379      0.20379      0.93599      0
C1627    C     0.1833       0.16201      0.9305       0
C1628    C     0.17681      0.1327       0.92711      0
N1260    N     0.1478       0.1274       0.9246       0
N1261    N     0.27661      0.1882       0.9162       0
N1262    N     0.26519      0.15409      0.97509      0
N1263    N     0.2509       0.11939      0.9157       0
N1264    N     0.21061      0.1752       0.9343       0
Zn158    Zn    0.2505       0.15829      0.93441      0
H991     H     0.25631      0.20971      0.82441      0
H992     H     0.2337       0.17281      0            0
H993     H     0.31109      0.12601      0.9482       0
H994     H     0.224        0.05241      0.98169      0
H995     H     0.21851      0.21851      0.93839      0
H996     H     0.1913       0.1177       0.92649      0
C1629    C     0.7229       0.2012       0.11079      0
N1265    N     0.73919      0.19539      0.13481      0
C1630    C     0.73279      0.2125       0.1581       0
C1631    C     0.74841      0.1621       0            0
C1632    C     0.7105       0.1394       0.01511      0
C1633    C     0.68901      0.1266       0.03101      0
N1266    N     0.6675       0.11479      0.01401      0
C1634    C     0.75639      0.0928       0.07149      0
N1267    N     0.7642       0.087        0.04299      0
C1635    C     0.77099      0.05799      0.0378       0
C1636    C     0.7962       0.20379      0.06399      0
C1637    C     0.81669      0.16201      0.06949      0
C1638    C     0.8232       0.1327       0.0729       0
N1268    N     0.85221      0.1274       0.07541      0
N1269    N     0.7234       0.1882       0.08381      0
N1270    N     0.7348       0.15409      0.02489      0
N1271    N     0.74909      0.11939      0.08429      0
N1272    N     0.7894       0.1752       0.06571      0
Zn159    Zn    0.74951      0.15829      0.0656       0
H997     H     0.7437       0.20971      0.1756       0
H998     H     0.76631      0.17281      0            0
H999     H     0.6889       0.12601      0.05179      0
H1000    H     0.77601      0.05241      0.0183       0
H1001    H     0.78151      0.21851      0.0616       0
H1002    H     0.80871      0.1177       0.07349      0
C1639    C     0.27709      0.79879      0.11079      0
N1273    N     0.26079      0.8046       0.13481      0
C1640    C     0.26719      0.78751      0.1581       0
C1641    C     0.2516       0.83789      0            0
C1642    C     0.28949      0.86061      0.01511      0
C1643    C     0.311        0.87341      0.03101      0
N1274    N     0.33251      0.88519      0.01401      0
C1644    C     0.2436       0.90721      0.07149      0
N1275    N     0.23579      0.91299      0.04299      0
C1645    C     0.229        0.942        0.0378       0
C1646    C     0.20379      0.7962       0.06399      0
C1647    C     0.1833       0.838        0.06949      0
C1648    C     0.17681      0.86729      0.0729       0
N1276    N     0.1478       0.87259      0.07541      0
N1277    N     0.27661      0.81181      0.08381      0
N1278    N     0.26519      0.8459       0.02489      0
N1279    N     0.2509       0.8806       0.08429      0
N1280    N     0.21061      0.82481      0.06571      0
Zn160    Zn    0.2505       0.8417       0.0656       0
H1003    H     0.25631      0.7903       0.1756       0
H1004    H     0.2337       0.8272       0            0
H1005    H     0.31109      0.874        0.05179      0
H1006    H     0.224        0.94761      0.0183       0
H1007    H     0.21851      0.78151      0.0616       0
H1008    H     0.1913       0.88229      0.07349      0
C1649    C     0.79879      0.61081      0.77711      0
N1281    N     0.8046       0.6348       0.76079      0
C1650    C     0.78751      0.65809      0.76721      0
C1651    C     0.83789      0.49999      0.7516       0
C1652    C     0.86061      0.5151       0.78951      0
C1653    C     0.87341      0.531        0.811        0
N1282    N     0.88519      0.514        0.8325       0
C1654    C     0.90721      0.57151      0.74359      0
N1283    N     0.91299      0.54301      0.73581      0
C1655    C     0.942        0.5378       0.72899      0
C1656    C     0.7962       0.56399      0.70381      0
C1657    C     0.838        0.56951      0.68329      0
C1658    C     0.86729      0.5729       0.6768       0
N1284    N     0.87259      0.5754       0.6478       0
N1285    N     0.81181      0.5838       0.7766       0
N1286    N     0.8459       0.52491      0.76521      0
N1287    N     0.8806       0.58431      0.75089      0
N1288    N     0.82481      0.5657       0.71061      0
Zn161    Zn    0.8417       0.56559      0.7505       0
H1009    H     0.7903       0.6756       0.7563       0
H1010    H     0.8272       0.49999      0.7337       0
H1011    H     0.874        0.55181      0.81111      0
H1012    H     0.94761      0.51829      0.724        0
H1013    H     0.78151      0.56159      0.7185       0
H1014    H     0.88229      0.57349      0.6913       0
C1659    C     0.2012       0.61081      0.2229       0
N1289    N     0.19539      0.6348       0.2392       0
C1660    C     0.2125       0.65809      0.2328       0
C1661    C     0.1621       0.49999      0.24839      0
C1662    C     0.1394       0.5151       0.2105       0
C1663    C     0.1266       0.531        0.18899      0
N1290    N     0.11479      0.514        0.16751      0
C1664    C     0.0928       0.57151      0.2564       0
N1291    N     0.087        0.54301      0.2642       0
C1665    C     0.05799      0.5378       0.271        0
C1666    C     0.20379      0.56399      0.2962       0
C1667    C     0.16201      0.56951      0.3167       0
C1668    C     0.1327       0.5729       0.32321      0
N1292    N     0.1274       0.5754       0.35219      0
N1293    N     0.1882       0.5838       0.22341      0
N1294    N     0.15409      0.52491      0.2348       0
N1295    N     0.11939      0.58431      0.2491       0
N1296    N     0.1752       0.5657       0.28941      0
Zn162    Zn    0.15829      0.56559      0.24949      0
H1015    H     0.20971      0.6756       0.24371      0
H1016    H     0.17281      0.49999      0.26629      0
H1017    H     0.12601      0.55181      0.18891      0
H1018    H     0.05241      0.51829      0.27599      0
H1019    H     0.21851      0.56159      0.28151      0
H1020    H     0.1177       0.57349      0.30869      0
C1669    C     0.2012       0.3892       0.77711      0
N1297    N     0.19539      0.36521      0.76079      0
C1670    C     0.2125       0.3419       0.76721      0
C1671    C     0.1621       0.49999      0.7516       0
C1672    C     0.1394       0.48491      0.78951      0
C1673    C     0.1266       0.46901      0.811        0
N1298    N     0.11479      0.48601      0.8325       0
C1674    C     0.0928       0.4285       0.74359      0
N1299    N     0.087        0.457        0.73581      0
C1675    C     0.05799      0.46219      0.72899      0
C1676    C     0.20379      0.436        0.70381      0
C1677    C     0.16201      0.4305       0.68329      0
C1678    C     0.1327       0.42709      0.6768       0
N1300    N     0.1274       0.42461      0.6478       0
N1301    N     0.1882       0.41621      0.7766       0
N1302    N     0.15409      0.4751       0.76521      0
N1303    N     0.11939      0.4157       0.75089      0
N1304    N     0.1752       0.43431      0.71061      0
Zn163    Zn    0.15829      0.43439      0.7505       0
H1021    H     0.20971      0.32439      0.7563       0
H1022    H     0.17281      0.49999      0.7337       0
H1023    H     0.12601      0.4482       0.81111      0
H1024    H     0.05241      0.4817       0.724        0
H1025    H     0.21851      0.4384       0.7185       0
H1026    H     0.1177       0.4265       0.6913       0
C1679    C     0.79879      0.3892       0.2229       0
N1305    N     0.8046       0.36521      0.2392       0
C1680    C     0.78751      0.3419       0.2328       0
C1681    C     0.83789      0.49999      0.24839      0
C1682    C     0.86061      0.48491      0.2105       0
C1683    C     0.87341      0.46901      0.18899      0
N1306    N     0.88519      0.48601      0.16751      0
C1684    C     0.90721      0.4285       0.2564       0
N1307    N     0.91299      0.457        0.2642       0
C1685    C     0.942        0.46219      0.271        0
C1686    C     0.7962       0.436        0.2962       0
C1687    C     0.838        0.4305       0.3167       0
C1688    C     0.86729      0.42709      0.32321      0
N1308    N     0.87259      0.42461      0.35219      0
N1309    N     0.81181      0.41621      0.22341      0
N1310    N     0.8459       0.4751       0.2348       0
N1311    N     0.8806       0.4157       0.2491       0
N1312    N     0.82481      0.43431      0.28941      0
Zn164    Zn    0.8417       0.43439      0.24949      0
H1027    H     0.7903       0.32439      0.24371      0
H1028    H     0.8272       0.49999      0.26629      0
H1029    H     0.874        0.4482       0.18891      0
H1030    H     0.94761      0.4817       0.27599      0
H1031    H     0.78151      0.4384       0.28151      0
H1032    H     0.88229      0.4265       0.30869      0
C1689    C     0.61081      0.7229       0.70119      0
N1313    N     0.6348       0.73919      0.69541      0
C1690    C     0.65809      0.73279      0.7125       0
C1691    C     0.49999      0.74841      0.66209      0
C1692    C     0.5151       0.7105       0.6394       0
C1693    C     0.531        0.68901      0.6266       0
N1314    N     0.514        0.6675       0.61479      0
C1694    C     0.57151      0.75639      0.5928       0
N1315    N     0.54301      0.7642       0.58699      0
C1695    C     0.5378       0.77099      0.55801      0
C1696    C     0.56399      0.7962       0.70381      0
C1697    C     0.56951      0.81669      0.662        0
C1698    C     0.5729       0.8232       0.63269      0
N1316    N     0.5754       0.85221      0.62739      0
N1317    N     0.5838       0.7234       0.6882       0
N1318    N     0.52491      0.7348       0.65411      0
N1319    N     0.58431      0.74909      0.61941      0
N1320    N     0.5657       0.7894       0.6752       0
Zn165    Zn    0.56559      0.74951      0.65831      0
H1033    H     0.6756       0.7437       0.7097       0
H1034    H     0.49999      0.76631      0.6728       0
H1035    H     0.55181      0.6889       0.626        0
H1036    H     0.51829      0.77601      0.5524       0
H1037    H     0.56159      0.78151      0.7185       0
H1038    H     0.57349      0.80871      0.61769      0
C1699    C     0.61081      0.27709      0.2988       0
N1321    N     0.6348       0.26079      0.3046       0
C1700    C     0.65809      0.26719      0.28749      0
C1701    C     0.49999      0.2516       0.3379       0
C1702    C     0.5151       0.28949      0.36059      0
C1703    C     0.531        0.311        0.37339      0
N1322    N     0.514        0.33251      0.3852       0
C1704    C     0.57151      0.2436       0.40719      0
N1323    N     0.54301      0.23579      0.413        0
C1705    C     0.5378       0.229        0.442        0
C1706    C     0.56399      0.20379      0.2962       0
C1707    C     0.56951      0.1833       0.33801      0
C1708    C     0.5729       0.17681      0.3673       0
N1324    N     0.5754       0.1478       0.3726       0
N1325    N     0.5838       0.27661      0.31179      0
N1326    N     0.52491      0.26519      0.3459       0
N1327    N     0.58431      0.2509       0.3806       0
N1328    N     0.5657       0.21061      0.32479      0
Zn166    Zn    0.56559      0.2505       0.3417       0
H1039    H     0.6756       0.25631      0.29031      0
H1040    H     0.49999      0.2337       0.32721      0
H1041    H     0.55181      0.31109      0.37401      0
H1042    H     0.51829      0.224        0.44759      0
H1043    H     0.56159      0.21851      0.28151      0
H1044    H     0.57349      0.1913       0.3823       0
C1709    C     0.3892       0.7229       0.2988       0
N1329    N     0.36521      0.73919      0.3046       0
C1710    C     0.3419       0.73279      0.28749      0
C1711    C     0.49999      0.74841      0.3379       0
C1712    C     0.48491      0.7105       0.36059      0
C1713    C     0.46901      0.68901      0.37339      0
N1330    N     0.48601      0.6675       0.3852       0
C1714    C     0.4285       0.75639      0.40719      0
N1331    N     0.457        0.7642       0.413        0
C1715    C     0.46219      0.77099      0.442        0
C1716    C     0.436        0.7962       0.2962       0
C1717    C     0.4305       0.81669      0.33801      0
C1718    C     0.42709      0.8232       0.3673       0
N1332    N     0.42461      0.85221      0.3726       0
N1333    N     0.41621      0.7234       0.31179      0
N1334    N     0.4751       0.7348       0.3459       0
N1335    N     0.4157       0.74909      0.3806       0
N1336    N     0.43431      0.7894       0.32479      0
Zn167    Zn    0.43439      0.74951      0.3417       0
H1045    H     0.32439      0.7437       0.29031      0
H1046    H     0.49999      0.76631      0.32721      0
H1047    H     0.4482       0.6889       0.37401      0
H1048    H     0.4817       0.77601      0.44759      0
H1049    H     0.4384       0.78151      0.28151      0
H1050    H     0.4265       0.80871      0.3823       0
C1719    C     0.3892       0.27709      0.70119      0
N1337    N     0.36521      0.26079      0.69541      0
C1720    C     0.3419       0.26719      0.7125       0
C1721    C     0.49999      0.2516       0.66209      0
C1722    C     0.48491      0.28949      0.6394       0
C1723    C     0.46901      0.311        0.6266       0
N1338    N     0.48601      0.33251      0.61479      0
C1724    C     0.4285       0.2436       0.5928       0
N1339    N     0.457        0.23579      0.58699      0
C1725    C     0.46219      0.229        0.55801      0
C1726    C     0.436        0.20379      0.70381      0
C1727    C     0.4305       0.1833       0.662        0
C1728    C     0.42709      0.17681      0.63269      0
N1340    N     0.42461      0.1478       0.62739      0
N1341    N     0.41621      0.27661      0.6882       0
N1342    N     0.4751       0.26519      0.65411      0
N1343    N     0.4157       0.2509       0.61941      0
N1344    N     0.43431      0.21061      0.6752       0
Zn168    Zn    0.43439      0.2505       0.65831      0
H1051    H     0.32439      0.25631      0.7097       0
H1052    H     0.49999      0.2337       0.6728       0
H1053    H     0.4482       0.31109      0.626        0
H1054    H     0.4817       0.224        0.5524       0
H1055    H     0.4384       0.21851      0.7185       0
H1056    H     0.4265       0.1913       0.61769      0
C1729    C     0.2012       0.27709      0.8892       0
N1345    N     0.19539      0.26079      0.8652       0
C1730    C     0.2125       0.26719      0.84189      0
C1731    C     0.1394       0.28949      0.9849       0
N1346    N     0.1266       0.311        0.969        0
C1732    C     0.11479      0.33251      0.986        0
C1733    C     0.0928       0.2436       0.9285       0
N1347    N     0.087        0.23579      0.957        0
C1734    C     0.05799      0.229        0.96221      0
C1735    C     0.16201      0.1833       0.9305       0
N1348    N     0.1327       0.17681      0.92711      0
C1736    C     0.1274       0.1478       0.9246       0
N1349    N     0.1882       0.27661      0.9162       0
N1350    N     0.15409      0.26519      0.97509      0
N1351    N     0.11939      0.2509       0.9157       0
N1352    N     0.1752       0.21061      0.9343       0
Zn169    Zn    0.15829      0.2505       0.93441      0
H1057    H     0.20971      0.25631      0.82441      0
H1058    H     0.1058       0.34869      0.9763       0
H1059    H     0.05241      0.224        0.98169      0
H1060    H     0.10749      0.1416       0.92269      0
C1737    C     0.79879      0.7229       0.8892       0
N1353    N     0.8046       0.73919      0.8652       0
C1738    C     0.78751      0.73279      0.84189      0
C1739    C     0.86061      0.7105       0.9849       0
N1354    N     0.87341      0.68901      0.969        0
C1740    C     0.88519      0.6675       0.986        0
C1741    C     0.90721      0.75639      0.9285       0
N1355    N     0.91299      0.7642       0.957        0
C1742    C     0.942        0.77099      0.96221      0
C1743    C     0.838        0.81669      0.9305       0
N1356    N     0.86729      0.8232       0.92711      0
C1744    C     0.87259      0.85221      0.9246       0
N1357    N     0.81181      0.7234       0.9162       0
N1358    N     0.8459       0.7348       0.97509      0
N1359    N     0.8806       0.74909      0.9157       0
N1360    N     0.82481      0.7894       0.9343       0
Zn170    Zn    0.8417       0.74951      0.93441      0
H1061    H     0.7903       0.7437       0.82441      0
H1062    H     0.89421      0.65129      0.9763       0
H1063    H     0.94761      0.77601      0.98169      0
H1064    H     0.8925       0.85841      0.92269      0
C1745    C     0.79879      0.27709      0.11079      0
N1361    N     0.8046       0.26079      0.13481      0
C1746    C     0.78751      0.26719      0.1581       0
C1747    C     0.86061      0.28949      0.01511      0
N1362    N     0.87341      0.311        0.03101      0
C1748    C     0.88519      0.33251      0.01401      0
C1749    C     0.90721      0.2436       0.07149      0
N1363    N     0.91299      0.23579      0.04299      0
C1750    C     0.942        0.229        0.0378       0
C1751    C     0.838        0.1833       0.06949      0
N1364    N     0.86729      0.17681      0.0729       0
C1752    C     0.87259      0.1478       0.07541      0
N1365    N     0.81181      0.27661      0.08381      0
N1366    N     0.8459       0.26519      0.02489      0
N1367    N     0.8806       0.2509       0.08429      0
N1368    N     0.82481      0.21061      0.06571      0
Zn171    Zn    0.8417       0.2505       0.0656       0
H1065    H     0.7903       0.25631      0.1756       0
H1066    H     0.89421      0.34869      0.02371      0
H1067    H     0.94761      0.224        0.0183       0
H1068    H     0.8925       0.1416       0.0773       0
C1753    C     0.2012       0.7229       0.11079      0
N1369    N     0.19539      0.73919      0.13481      0
C1754    C     0.2125       0.73279      0.1581       0
C1755    C     0.1394       0.7105       0.01511      0
N1370    N     0.1266       0.68901      0.03101      0
C1756    C     0.11479      0.6675       0.01401      0
C1757    C     0.0928       0.75639      0.07149      0
N1371    N     0.087        0.7642       0.04299      0
C1758    C     0.05799      0.77099      0.0378       0
C1759    C     0.16201      0.81669      0.06949      0
N1372    N     0.1327       0.8232       0.0729       0
C1760    C     0.1274       0.85221      0.07541      0
N1373    N     0.1882       0.7234       0.08381      0
N1374    N     0.15409      0.7348       0.02489      0
N1375    N     0.11939      0.74909      0.08429      0
N1376    N     0.1752       0.7894       0.06571      0
Zn172    Zn    0.15829      0.74951      0.0656       0
H1069    H     0.20971      0.7437       0.1756       0
H1070    H     0.1058       0.65129      0.02371      0
H1071    H     0.05241      0.77601      0.0183       0
H1072    H     0.10749      0.85841      0.0773       0
C1761    C     0.3892       0.2012       0.77711      0
N1377    N     0.36521      0.19539      0.76079      0
C1762    C     0.3419       0.2125       0.76721      0
C1763    C     0.48491      0.1394       0.78951      0
N1378    N     0.46901      0.1266       0.811        0
C1764    C     0.48601      0.11479      0.8325       0
C1765    C     0.4285       0.0928       0.74359      0
N1379    N     0.457        0.087        0.73581      0
C1766    C     0.46219      0.05799      0.72899      0
C1767    C     0.4305       0.16201      0.68329      0
N1380    N     0.42709      0.1327       0.6768       0
C1768    C     0.42461      0.1274       0.6478       0
N1381    N     0.41621      0.1882       0.7766       0
N1382    N     0.4751       0.15409      0.76521      0
N1383    N     0.4157       0.11939      0.75089      0
N1384    N     0.43431      0.1752       0.71061      0
Zn173    Zn    0.43439      0.15829      0.7505       0
H1073    H     0.32439      0.20971      0.7563       0
H1074    H     0.47631      0.1058       0.84871      0
H1075    H     0.4817       0.05241      0.724        0
H1076    H     0.4227       0.10749      0.6416       0
C1769    C     0.3892       0.79879      0.2229       0
N1385    N     0.36521      0.8046       0.2392       0
C1770    C     0.3419       0.78751      0.2328       0
C1771    C     0.48491      0.86061      0.2105       0
N1386    N     0.46901      0.87341      0.18899      0
C1772    C     0.48601      0.88519      0.16751      0
C1773    C     0.4285       0.90721      0.2564       0
N1387    N     0.457        0.91299      0.2642       0
C1774    C     0.46219      0.942        0.271        0
C1775    C     0.4305       0.838        0.3167       0
N1388    N     0.42709      0.86729      0.32321      0
C1776    C     0.42461      0.87259      0.35219      0
N1389    N     0.41621      0.81181      0.22341      0
N1390    N     0.4751       0.8459       0.2348       0
N1391    N     0.4157       0.8806       0.2491       0
N1392    N     0.43431      0.82481      0.28941      0
Zn174    Zn    0.43439      0.8417       0.24949      0
H1077    H     0.32439      0.7903       0.24371      0
H1078    H     0.47631      0.89421      0.1513       0
H1079    H     0.4817       0.94761      0.27599      0
H1080    H     0.4227       0.8925       0.35839      0
C1777    C     0.61081      0.79879      0.77711      0
N1393    N     0.6348       0.8046       0.76079      0
C1778    C     0.65809      0.78751      0.76721      0
C1779    C     0.5151       0.86061      0.78951      0
N1394    N     0.531        0.87341      0.811        0
C1780    C     0.514        0.88519      0.8325       0
C1781    C     0.57151      0.90721      0.74359      0
N1395    N     0.54301      0.91299      0.73581      0
C1782    C     0.5378       0.942        0.72899      0
C1783    C     0.56951      0.838        0.68329      0
N1396    N     0.5729       0.86729      0.6768       0
C1784    C     0.5754       0.87259      0.6478       0
N1397    N     0.5838       0.81181      0.7766       0
N1398    N     0.52491      0.8459       0.76521      0
N1399    N     0.58431      0.8806       0.75089      0
N1400    N     0.5657       0.82481      0.71061      0
Zn175    Zn    0.56559      0.8417       0.7505       0
H1081    H     0.6756       0.7903       0.7563       0
H1082    H     0.5237       0.89421      0.84871      0
H1083    H     0.51829      0.94761      0.724        0
H1084    H     0.57729      0.8925       0.6416       0
C1785    C     0.61081      0.2012       0.2229       0
N1401    N     0.6348       0.19539      0.2392       0
C1786    C     0.65809      0.2125       0.2328       0
C1787    C     0.5151       0.1394       0.2105       0
N1402    N     0.531        0.1266       0.18899      0
C1788    C     0.514        0.11479      0.16751      0
C1789    C     0.57151      0.0928       0.2564       0
N1403    N     0.54301      0.087        0.2642       0
C1790    C     0.5378       0.05799      0.271        0
C1791    C     0.56951      0.16201      0.3167       0
N1404    N     0.5729       0.1327       0.32321      0
C1792    C     0.5754       0.1274       0.35219      0
N1405    N     0.5838       0.1882       0.22341      0
N1406    N     0.52491      0.15409      0.2348       0
N1407    N     0.58431      0.11939      0.2491       0
N1408    N     0.5657       0.1752       0.28941      0
Zn176    Zn    0.56559      0.15829      0.24949      0
H1085    H     0.6756       0.20971      0.24371      0
H1086    H     0.5237       0.1058       0.1513       0
H1087    H     0.51829      0.05241      0.27599      0
H1088    H     0.57729      0.10749      0.35839      0
C1793    C     0.27709      0.3892       0.70119      0
N1409    N     0.26079      0.36521      0.69541      0
C1794    C     0.26719      0.3419       0.7125       0
C1795    C     0.28949      0.48491      0.6394       0
N1410    N     0.311        0.46901      0.6266       0
C1796    C     0.33251      0.48601      0.61479      0
C1797    C     0.2436       0.4285       0.5928       0
N1411    N     0.23579      0.457        0.58699      0
C1798    C     0.229        0.46219      0.55801      0
C1799    C     0.1833       0.4305       0.662        0
N1412    N     0.17681      0.42709      0.63269      0
C1800    C     0.1478       0.42461      0.62739      0
N1413    N     0.27661      0.41621      0.6882       0
N1414    N     0.26519      0.4751       0.65411      0
N1415    N     0.2509       0.4157       0.61941      0
N1416    N     0.21061      0.43431      0.6752       0
Zn177    Zn    0.2505       0.43439      0.65831      0
H1089    H     0.25631      0.32439      0.7097       0
H1090    H     0.34869      0.47631      0.60579      0
H1091    H     0.224        0.4817       0.5524       0
H1092    H     0.1416       0.4227       0.60751      0
C1801    C     0.7229       0.3892       0.2988       0
N1417    N     0.73919      0.36521      0.3046       0
C1802    C     0.73279      0.3419       0.28749      0
C1803    C     0.7105       0.48491      0.36059      0
N1418    N     0.68901      0.46901      0.37339      0
C1804    C     0.6675       0.48601      0.3852       0
C1805    C     0.75639      0.4285       0.40719      0
N1419    N     0.7642       0.457        0.413        0
C1806    C     0.77099      0.46219      0.442        0
C1807    C     0.81669      0.4305       0.33801      0
N1420    N     0.8232       0.42709      0.3673       0
C1808    C     0.85221      0.42461      0.3726       0
N1421    N     0.7234       0.41621      0.31179      0
N1422    N     0.7348       0.4751       0.3459       0
N1423    N     0.74909      0.4157       0.3806       0
N1424    N     0.7894       0.43431      0.32479      0
Zn178    Zn    0.74951      0.43439      0.3417       0
H1093    H     0.7437       0.32439      0.29031      0
H1094    H     0.65129      0.47631      0.39419      0
H1095    H     0.77601      0.4817       0.44759      0
H1096    H     0.85841      0.4227       0.3925       0
C1809    C     0.27709      0.61081      0.2988       0
N1425    N     0.26079      0.6348       0.3046       0
C1810    C     0.26719      0.65809      0.28749      0
C1811    C     0.28949      0.5151       0.36059      0
N1426    N     0.311        0.531        0.37339      0
C1812    C     0.33251      0.514        0.3852       0
C1813    C     0.2436       0.57151      0.40719      0
N1427    N     0.23579      0.54301      0.413        0
C1814    C     0.229        0.5378       0.442        0
C1815    C     0.1833       0.56951      0.33801      0
N1428    N     0.17681      0.5729       0.3673       0
C1816    C     0.1478       0.5754       0.3726       0
N1429    N     0.27661      0.5838       0.31179      0
N1430    N     0.26519      0.52491      0.3459       0
N1431    N     0.2509       0.58431      0.3806       0
N1432    N     0.21061      0.5657       0.32479      0
Zn179    Zn    0.2505       0.56559      0.3417       0
H1097    H     0.25631      0.6756       0.29031      0
H1098    H     0.34869      0.5237       0.39419      0
H1099    H     0.224        0.51829      0.44759      0
H1100    H     0.1416       0.57729      0.3925       0
C1817    C     0.7229       0.61081      0.70119      0
N1433    N     0.73919      0.6348       0.69541      0
C1818    C     0.73279      0.65809      0.7125       0
C1819    C     0.7105       0.5151       0.6394       0
N1434    N     0.68901      0.531        0.6266       0
C1820    C     0.6675       0.514        0.61479      0
C1821    C     0.75639      0.57151      0.5928       0
N1435    N     0.7642       0.54301      0.58699      0
C1822    C     0.77099      0.5378       0.55801      0
C1823    C     0.81669      0.56951      0.662        0
N1436    N     0.8232       0.5729       0.63269      0
C1824    C     0.85221      0.5754       0.62739      0
N1437    N     0.7234       0.5838       0.6882       0
N1438    N     0.7348       0.52491      0.65411      0
N1439    N     0.74909      0.58431      0.61941      0
N1440    N     0.7894       0.5657       0.6752       0
Zn180    Zn    0.74951      0.56559      0.65831      0
H1101    H     0.7437       0.6756       0.7097       0
H1102    H     0.65129      0.5237       0.60579      0
H1103    H     0.77601      0.51829      0.5524       0
H1104    H     0.85841      0.57729      0.60751      0
C1825    C     0.27709      0.2012       0.11079      0
N1441    N     0.26079      0.19539      0.13481      0
C1826    C     0.26719      0.2125       0.1581       0
C1827    C     0.28949      0.1394       0.01511      0
N1442    N     0.311        0.1266       0.03101      0
C1828    C     0.33251      0.11479      0.01401      0
C1829    C     0.2436       0.0928       0.07149      0
N1443    N     0.23579      0.087        0.04299      0
C1830    C     0.229        0.05799      0.0378       0
C1831    C     0.1833       0.16201      0.06949      0
N1444    N     0.17681      0.1327       0.0729       0
C1832    C     0.1478       0.1274       0.07541      0
N1445    N     0.27661      0.1882       0.08381      0
N1446    N     0.26519      0.15409      0.02489      0
N1447    N     0.2509       0.11939      0.08429      0
N1448    N     0.21061      0.1752       0.06571      0
Zn181    Zn    0.2505       0.15829      0.0656       0
H1105    H     0.25631      0.20971      0.1756       0
H1106    H     0.34869      0.1058       0.02371      0
H1107    H     0.224        0.05241      0.0183       0
H1108    H     0.1416       0.10749      0.0773       0
C1833    C     0.7229       0.79879      0.11079      0
N1449    N     0.73919      0.8046       0.13481      0
C1834    C     0.73279      0.78751      0.1581       0
C1835    C     0.7105       0.86061      0.01511      0
N1450    N     0.68901      0.87341      0.03101      0
C1836    C     0.6675       0.88519      0.01401      0
C1837    C     0.75639      0.90721      0.07149      0
N1451    N     0.7642       0.91299      0.04299      0
C1838    C     0.77099      0.942        0.0378       0
C1839    C     0.81669      0.838        0.06949      0
N1452    N     0.8232       0.86729      0.0729       0
C1840    C     0.85221      0.87259      0.07541      0
N1453    N     0.7234       0.81181      0.08381      0
N1454    N     0.7348       0.8459       0.02489      0
N1455    N     0.74909      0.8806       0.08429      0
N1456    N     0.7894       0.82481      0.06571      0
Zn182    Zn    0.74951      0.8417       0.0656       0
H1109    H     0.7437       0.7903       0.1756       0
H1110    H     0.65129      0.89421      0.02371      0
H1111    H     0.77601      0.94761      0.0183       0
H1112    H     0.85841      0.8925       0.0773       0
C1841    C     0.27709      0.79879      0.8892       0
N1457    N     0.26079      0.8046       0.8652       0
C1842    C     0.26719      0.78751      0.84189      0
C1843    C     0.28949      0.86061      0.9849       0
N1458    N     0.311        0.87341      0.969        0
C1844    C     0.33251      0.88519      0.986        0
C1845    C     0.2436       0.90721      0.9285       0
N1459    N     0.23579      0.91299      0.957        0
C1846    C     0.229        0.942        0.96221      0
C1847    C     0.1833       0.838        0.9305       0
N1460    N     0.17681      0.86729      0.92711      0
C1848    C     0.1478       0.87259      0.9246       0
N1461    N     0.27661      0.81181      0.9162       0
N1462    N     0.26519      0.8459       0.97509      0
N1463    N     0.2509       0.8806       0.9157       0
N1464    N     0.21061      0.82481      0.9343       0
Zn183    Zn    0.2505       0.8417       0.93441      0
H1113    H     0.25631      0.7903       0.82441      0
H1114    H     0.34869      0.89421      0.9763       0
H1115    H     0.224        0.94761      0.98169      0
H1116    H     0.1416       0.8925       0.92269      0
C1849    C     0.7229       0.2012       0.8892       0
N1465    N     0.73919      0.19539      0.8652       0
C1850    C     0.73279      0.2125       0.84189      0
C1851    C     0.7105       0.1394       0.9849       0
N1466    N     0.68901      0.1266       0.969        0
C1852    C     0.6675       0.11479      0.986        0
C1853    C     0.75639      0.0928       0.9285       0
N1467    N     0.7642       0.087        0.957        0
C1854    C     0.77099      0.05799      0.96221      0
C1855    C     0.81669      0.16201      0.9305       0
N1468    N     0.8232       0.1327       0.92711      0
C1856    C     0.85221      0.1274       0.9246       0
N1469    N     0.7234       0.1882       0.9162       0
N1470    N     0.7348       0.15409      0.97509      0
N1471    N     0.74909      0.11939      0.9157       0
N1472    N     0.7894       0.1752       0.9343       0
Zn184    Zn    0.74951      0.15829      0.93441      0
H1117    H     0.7437       0.20971      0.82441      0
H1118    H     0.65129      0.1058       0.9763       0
H1119    H     0.77601      0.05241      0.98169      0
H1120    H     0.85841      0.10749      0.92269      0
C1857    C     0.2012       0.3892       0.2229       0
N1473    N     0.19539      0.36521      0.2392       0
C1858    C     0.2125       0.3419       0.2328       0
C1859    C     0.1394       0.48491      0.2105       0
N1474    N     0.1266       0.46901      0.18899      0
C1860    C     0.11479      0.48601      0.16751      0
C1861    C     0.0928       0.4285       0.2564       0
N1475    N     0.087        0.457        0.2642       0
C1862    C     0.05799      0.46219      0.271        0
C1863    C     0.16201      0.4305       0.3167       0
N1476    N     0.1327       0.42709      0.32321      0
C1864    C     0.1274       0.42461      0.35219      0
N1477    N     0.1882       0.41621      0.22341      0
N1478    N     0.15409      0.4751       0.2348       0
N1479    N     0.11939      0.4157       0.2491       0
N1480    N     0.1752       0.43431      0.28941      0
Zn185    Zn    0.15829      0.43439      0.24949      0
H1121    H     0.20971      0.32439      0.24371      0
H1122    H     0.1058       0.47631      0.1513       0
H1123    H     0.05241      0.4817       0.27599      0
H1124    H     0.10749      0.4227       0.35839      0
C1865    C     0.79879      0.3892       0.77711      0
N1481    N     0.8046       0.36521      0.76079      0
C1866    C     0.78751      0.3419       0.76721      0
C1867    C     0.86061      0.48491      0.78951      0
N1482    N     0.87341      0.46901      0.811        0
C1868    C     0.88519      0.48601      0.8325       0
C1869    C     0.90721      0.4285       0.74359      0
N1483    N     0.91299      0.457        0.73581      0
C1870    C     0.942        0.46219      0.72899      0
C1871    C     0.838        0.4305       0.68329      0
N1484    N     0.86729      0.42709      0.6768       0
C1872    C     0.87259      0.42461      0.6478       0
N1485    N     0.81181      0.41621      0.7766       0
N1486    N     0.8459       0.4751       0.76521      0
N1487    N     0.8806       0.4157       0.75089      0
N1488    N     0.82481      0.43431      0.71061      0
Zn186    Zn    0.8417       0.43439      0.7505       0
H1125    H     0.7903       0.32439      0.7563       0
H1126    H     0.89421      0.47631      0.84871      0
H1127    H     0.94761      0.4817       0.724        0
H1128    H     0.8925       0.4227       0.6416       0
C1873    C     0.79879      0.61081      0.2229       0
N1489    N     0.8046       0.6348       0.2392       0
C1874    C     0.78751      0.65809      0.2328       0
C1875    C     0.86061      0.5151       0.2105       0
N1490    N     0.87341      0.531        0.18899      0
C1876    C     0.88519      0.514        0.16751      0
C1877    C     0.90721      0.57151      0.2564       0
N1491    N     0.91299      0.54301      0.2642       0
C1878    C     0.942        0.5378       0.271        0
C1879    C     0.838        0.56951      0.3167       0
N1492    N     0.86729      0.5729       0.32321      0
C1880    C     0.87259      0.5754       0.35219      0
N1493    N     0.81181      0.5838       0.22341      0
N1494    N     0.8459       0.52491      0.2348       0
N1495    N     0.8806       0.58431      0.2491       0
N1496    N     0.82481      0.5657       0.28941      0
Zn187    Zn    0.8417       0.56559      0.24949      0
H1129    H     0.7903       0.6756       0.24371      0
H1130    H     0.89421      0.5237       0.1513       0
H1131    H     0.94761      0.51829      0.27599      0
H1132    H     0.8925       0.57729      0.35839      0
C1881    C     0.2012       0.61081      0.77711      0
N1497    N     0.19539      0.6348       0.76079      0
C1882    C     0.2125       0.65809      0.76721      0
C1883    C     0.1394       0.5151       0.78951      0
N1498    N     0.1266       0.531        0.811        0
C1884    C     0.11479      0.514        0.8325       0
C1885    C     0.0928       0.57151      0.74359      0
N1499    N     0.087        0.54301      0.73581      0
C1886    C     0.05799      0.5378       0.72899      0
C1887    C     0.16201      0.56951      0.68329      0
N1500    N     0.1327       0.5729       0.6768       0
C1888    C     0.1274       0.5754       0.6478       0
N1501    N     0.1882       0.5838       0.7766       0
N1502    N     0.15409      0.52491      0.76521      0
N1503    N     0.11939      0.58431      0.75089      0
N1504    N     0.1752       0.5657       0.71061      0
Zn188    Zn    0.15829      0.56559      0.7505       0
H1133    H     0.20971      0.6756       0.7563       0
H1134    H     0.1058       0.5237       0.84871      0
H1135    H     0.05241      0.51829      0.724        0
H1136    H     0.10749      0.57729      0.6416       0
C1889    C     0.3892       0.27709      0.2988       0
N1505    N     0.36521      0.26079      0.3046       0
C1890    C     0.3419       0.26719      0.28749      0
C1891    C     0.48491      0.28949      0.36059      0
N1506    N     0.46901      0.311        0.37339      0
C1892    C     0.48601      0.33251      0.3852       0
C1893    C     0.4285       0.2436       0.40719      0
N1507    N     0.457        0.23579      0.413        0
C1894    C     0.46219      0.229        0.442        0
C1895    C     0.4305       0.1833       0.33801      0
N1508    N     0.42709      0.17681      0.3673       0
C1896    C     0.42461      0.1478       0.3726       0
N1509    N     0.41621      0.27661      0.31179      0
N1510    N     0.4751       0.26519      0.3459       0
N1511    N     0.4157       0.2509       0.3806       0
N1512    N     0.43431      0.21061      0.32479      0
Zn189    Zn    0.43439      0.2505       0.3417       0
H1137    H     0.32439      0.25631      0.29031      0
H1138    H     0.47631      0.34869      0.39419      0
H1139    H     0.4817       0.224        0.44759      0
H1140    H     0.4227       0.1416       0.3925       0
C1897    C     0.3892       0.7229       0.70119      0
N1513    N     0.36521      0.73919      0.69541      0
C1898    C     0.3419       0.73279      0.7125       0
C1899    C     0.48491      0.7105       0.6394       0
N1514    N     0.46901      0.68901      0.6266       0
C1900    C     0.48601      0.6675       0.61479      0
C1901    C     0.4285       0.75639      0.5928       0
N1515    N     0.457        0.7642       0.58699      0
C1902    C     0.46219      0.77099      0.55801      0
C1903    C     0.4305       0.81669      0.662        0
N1516    N     0.42709      0.8232       0.63269      0
C1904    C     0.42461      0.85221      0.62739      0
N1517    N     0.41621      0.7234       0.6882       0
N1518    N     0.4751       0.7348       0.65411      0
N1519    N     0.4157       0.74909      0.61941      0
N1520    N     0.43431      0.7894       0.6752       0
Zn190    Zn    0.43439      0.74951      0.65831      0
H1141    H     0.32439      0.7437       0.7097       0
H1142    H     0.47631      0.65129      0.60579      0
H1143    H     0.4817       0.77601      0.5524       0
H1144    H     0.4227       0.85841      0.60751      0
C1905    C     0.61081      0.27709      0.70119      0
N1521    N     0.6348       0.26079      0.69541      0
C1906    C     0.65809      0.26719      0.7125       0
C1907    C     0.5151       0.28949      0.6394       0
N1522    N     0.531        0.311        0.6266       0
C1908    C     0.514        0.33251      0.61479      0
C1909    C     0.57151      0.2436       0.5928       0
N1523    N     0.54301      0.23579      0.58699      0
C1910    C     0.5378       0.229        0.55801      0
C1911    C     0.56951      0.1833       0.662        0
N1524    N     0.5729       0.17681      0.63269      0
C1912    C     0.5754       0.1478       0.62739      0
N1525    N     0.5838       0.27661      0.6882       0
N1526    N     0.52491      0.26519      0.65411      0
N1527    N     0.58431      0.2509       0.61941      0
N1528    N     0.5657       0.21061      0.6752       0
Zn191    Zn    0.56559      0.2505       0.65831      0
H1145    H     0.6756       0.25631      0.7097       0
H1146    H     0.5237       0.34869      0.60579      0
H1147    H     0.51829      0.224        0.5524       0
H1148    H     0.57729      0.1416       0.60751      0
C1913    C     0.61081      0.7229       0.2988       0
N1529    N     0.6348       0.73919      0.3046       0
C1914    C     0.65809      0.73279      0.28749      0
C1915    C     0.5151       0.7105       0.36059      0
N1530    N     0.531        0.68901      0.37339      0
C1916    C     0.514        0.6675       0.3852       0
C1917    C     0.57151      0.75639      0.40719      0
N1531    N     0.54301      0.7642       0.413        0
C1918    C     0.5378       0.77099      0.442        0
C1919    C     0.56951      0.81669      0.33801      0
N1532    N     0.5729       0.8232       0.3673       0
C1920    C     0.5754       0.85221      0.3726       0
N1533    N     0.5838       0.7234       0.31179      0
N1534    N     0.52491      0.7348       0.3459       0
N1535    N     0.58431      0.74909      0.3806       0
N1536    N     0.5657       0.7894       0.32479      0
Zn192    Zn    0.56559      0.74951      0.3417       0
H1149    H     0.6756       0.7437       0.29031      0
H1150    H     0.5237       0.65129      0.39419      0
H1151    H     0.51829      0.77601      0.44759      0
H1152    H     0.57729      0.85841      0.3925       0


