data_DMOF

_audit_creation_method RASPA-1.0
_audit_creation_date 2013-1-31
_audit_author_name 'David Dubbeldam'

_cell_length_a    21.624
_cell_length_b    21.624
_cell_length_c    38.385
_cell_angle_alpha 90
_cell_angle_beta  90
_cell_angle_gamma 90
_cell_volume      17948.7

_symmetry_cell_setting          triclinic
_symmetry_space_group_name_Hall 'P 1'
_symmetry_space_group_name_H-M  'P 1'
_symmetry_Int_Tables_number     1

_symmetry_equiv_pos_as_xyz 'x,y,z'

loop_
_atom_site_label
_atom_site_type_symbol
_atom_site_fract_x
_atom_site_fract_y
_atom_site_fract_z
_atom_site_charge
H2       H      0.300437     0.953289     0.035778     0.101897   
H2       H      0.300431     0.046721     0.464224     0.101275   
H2       H      0.300437     0.453289     0.964222     0.101915   
H2       H      0.300437     0.546711     0.535778     0.101905   
H2       H      0.699564     0.953289     0.535778     0.1019     
H2       H      0.699569     0.046721     0.964224     0.101355   
H2       H      0.699564     0.453289     0.464222     0.101923   
H2       H      0.699564     0.546711     0.035778     0.101906   
H2       H      0.203279     0.550431     0.285776     0.101392   
H2       H      0.203279     0.949569     0.785776     0.101339   
H2       H      0.203279     0.050431     0.714224     0.101374   
H2       H      0.203279     0.449569     0.214224     0.101277   
H2       H      0.296711     0.550437     0.714223     0.101882   
H2       H      0.296711     0.949563     0.214223     0.101897   
H2       H      0.296711     0.050437     0.285778     0.10194    
H2       H      0.296711     0.449563     0.785778     0.101927   
H2       H      0.800437     0.953289     0.464222     0.101933   
H2       H      0.800431     0.046721     0.035776     0.101384   
H2       H      0.800437     0.453289     0.535778     0.101923   
H2       H      0.800437     0.546711     0.964222     0.101916   
H2       H      0.199563     0.953289     0.964222     0.101895   
H2       H      0.199564     0.046723     0.535775     0.101322   
H2       H      0.199563     0.453289     0.035778     0.10191    
H2       H      0.199563     0.546711     0.464222     0.101913   
H2       H      0.703289     0.550437     0.214222     0.101937   
H2       H      0.703288     0.949566     0.714223     0.101871   
H2       H      0.703334     0.050453     0.785773     0.102365   
H2       H      0.703289     0.449564     0.285778     0.101937   
H2       H      0.796711     0.550437     0.785778     0.10192    
H2       H      0.796712     0.949566     0.285777     0.101884   
H2       H      0.796666     0.050453     0.214227     0.102303   
H2       H      0.796711     0.449564     0.714222     0.101894   
H2       H      0.338121     0.025091     0.036926     0.090226   
H2       H      0.338107     0.974914     0.463074     0.090331   
H2       H      0.338121     0.525091     0.963074     0.090232   
H2       H      0.338121     0.474909     0.536926     0.090232   
H2       H      0.661879     0.025091     0.536926     0.090222   
H2       H      0.66189      0.974912     0.963073     0.090302   
H2       H      0.661879     0.525091     0.463074     0.090214   
H2       H      0.661879     0.474909     0.036926     0.090228   
H2       H      0.275088     0.58811      0.286928     0.090331   
H2       H      0.275088     0.91189      0.786927     0.090307   
H2       H      0.275088     0.08811      0.713072     0.090322   
H2       H      0.275088     0.41189      0.213072     0.09033    
H2       H      0.22491      0.588122     0.713075     0.090177   
H2       H      0.22491      0.911878     0.213075     0.090187   
H2       H      0.22491      0.088122     0.286926     0.090239   
H2       H      0.224909     0.411878     0.786925     0.090257   
H2       H      0.838121     0.025091     0.463074     0.090211   
H2       H      0.83811      0.974912     0.036927     0.090305   
H2       H      0.838121     0.525091     0.536926     0.090212   
H2       H      0.838121     0.474909     0.963074     0.090211   
H2       H      0.161879     0.025091     0.963074     0.090218   
H2       H      0.161888     0.974917     0.536925     0.090257   
H2       H      0.161879     0.525091     0.036926     0.090244   
H2       H      0.161879     0.47491      0.463074     0.090213   
H2       H      0.775091     0.588121     0.213074     0.09023    
H2       H      0.77509      0.911881     0.713077     0.090296   
H2       H      0.775115     0.088147     0.786931     0.090237   
H2       H      0.775091     0.411879     0.286926     0.090256   
H2       H      0.724909     0.588121     0.786926     0.090225   
H2       H      0.72491      0.911881     0.286924     0.09035    
H2       H      0.724885     0.088147     0.213069     0.090208   
H2       H      0.724909     0.411879     0.713074     0.090248   
H2       H      0.14684      0.018032     0.023644     0.096141   
H2       H      0.146788     0.981916     0.476349     0.09533    
H2       H      0.14684      0.518033     0.976356     0.096193   
H2       H      0.146841     0.481968     0.523644     0.096058   
H2       H      0.85316      0.018032     0.523644     0.096113   
H2       H      0.853209     0.981916     0.976351     0.095196   
H2       H      0.85316      0.518032     0.476356     0.096154   
H2       H      0.85316      0.481968     0.023644     0.096111   
H2       H      0.268084     0.396791     0.273649     0.095184   
H2       H      0.268084     0.103209     0.773649     0.09518    
H2       H      0.268084     0.896791     0.726351     0.095146   
H2       H      0.268084     0.603209     0.226351     0.095193   
H2       H      0.231967     0.396841     0.726355     0.096205   
H2       H      0.231967     0.103159     0.226355     0.096168   
H2       H      0.231967     0.89684      0.273645     0.096284   
H2       H      0.231967     0.603159     0.773645     0.096229   
H2       H      0.64684      0.018032     0.476356     0.09612    
H2       H      0.646791     0.981916     0.023649     0.095155   
H2       H      0.64684      0.518033     0.523644     0.0962     
H2       H      0.646841     0.481968     0.976356     0.096076   
H2       H      0.35316      0.018032     0.976356     0.096124   
H2       H      0.353208     0.981912     0.523651     0.095268   
H2       H      0.35316      0.518033     0.023644     0.096199   
H2       H      0.35316      0.481968     0.476356     0.096124   
H2       H      0.768032     0.396841     0.226356     0.096092   
H2       H      0.768022     0.103147     0.726355     0.096349   
H2       H      0.768039     0.896833     0.773648     0.095812   
H2       H      0.768033     0.60316      0.273644     0.096218   
H2       H      0.731968     0.39684      0.773644     0.09618    
H2       H      0.731979     0.103147     0.273645     0.096285   
H2       H      0.731961     0.896833     0.226352     0.095814   
H2       H      0.731968     0.60316      0.726356     0.096182   
H2       H      0.190058     0.949614     0.02536      0.098852   
H2       H      0.190042     0.050322     0.474647     0.099527   
H2       H      0.190059     0.449614     0.97464      0.098855   
H2       H      0.190058     0.550386     0.52536      0.098796   
H2       H      0.809941     0.949614     0.52536      0.098881   
H2       H      0.809957     0.05032      0.974649     0.09946    
H2       H      0.809941     0.449614     0.47464      0.098894   
H2       H      0.809942     0.550386     0.02536      0.098871   
H2       H      0.19968      0.440043     0.275351     0.099423   
H2       H      0.19968      0.059957     0.775351     0.099417   
H2       H      0.19968      0.940043     0.724649     0.099385   
H2       H      0.19968      0.559957     0.224649     0.099466   
H2       H      0.300386     0.440059     0.72464      0.09882    
H2       H      0.300386     0.059941     0.22464      0.09881    
H2       H      0.300386     0.940059     0.27536      0.098883   
H2       H      0.300386     0.559941     0.77536      0.098858   
H2       H      0.690059     0.949614     0.47464      0.098893   
H2       H      0.690044     0.05032      0.025351     0.099386   
H2       H      0.690059     0.449614     0.52536      0.098899   
H2       H      0.690059     0.550386     0.97464      0.098862   
H2       H      0.309942     0.949614     0.97464      0.098847   
H2       H      0.309955     0.050319     0.525351     0.099466   
H2       H      0.309942     0.449614     0.02536      0.098859   
H2       H      0.309942     0.550386     0.47464      0.098862   
H2       H      0.699614     0.440059     0.22464      0.098833   
H2       H      0.699605     0.059943     0.724639     0.098      
H2       H      0.69962      0.940062     0.77536      0.098979   
H2       H      0.699614     0.559942     0.27536      0.09892    
H2       H      0.800386     0.440059     0.77536      0.098871   
H2       H      0.800395     0.059943     0.275361     0.097961   
H2       H      0.80038      0.940062     0.22464      0.098989   
H2       H      0.800386     0.559941     0.72464      0.09889    
H2       H      0.279505     0.119721     0.033976     0.096572   
H2       H      0.279493     0.880277     0.466029     0.096868   
H2       H      0.279505     0.619721     0.966024     0.09657    
H2       H      0.279505     0.380279     0.533976     0.096568   
H2       H      0.720495     0.119721     0.533976     0.096552   
H2       H      0.720506     0.880276     0.966029     0.096806   
H2       H      0.720495     0.619721     0.466024     0.096364   
H2       H      0.720495     0.380279     0.033976     0.096533   
H2       H      0.369724     0.529494     0.283971     0.096807   
H2       H      0.369724     0.970506     0.783971     0.09681    
H2       H      0.369724     0.029494     0.716029     0.096849   
H2       H      0.369724     0.470506     0.216029     0.09682    
H2       H      0.130279     0.529505     0.716024     0.096546   
H2       H      0.130279     0.970495     0.216024     0.09654    
H2       H      0.130279     0.029505     0.283976     0.096549   
H2       H      0.130279     0.470495     0.783976     0.09656    
H2       H      0.779505     0.119721     0.466024     0.09652    
H2       H      0.779494     0.880276     0.033971     0.09685    
H2       H      0.779505     0.619721     0.533976     0.096571   
H2       H      0.779505     0.380279     0.966024     0.096537   
H2       H      0.220495     0.119721     0.966024     0.096574   
H2       H      0.220506     0.880277     0.53397      0.096883   
H2       H      0.220495     0.619721     0.033976     0.096578   
H2       H      0.220495     0.380279     0.466024     0.096566   
H2       H      0.869721     0.529505     0.216024     0.096551   
H2       H      0.869721     0.970493     0.716025     0.096472   
H2       H      0.869724     0.02951      0.783977     0.096377   
H2       H      0.869721     0.470495     0.283976     0.096571   
H2       H      0.630279     0.529505     0.783976     0.096576   
H2       H      0.630279     0.970493     0.283975     0.09649    
H2       H      0.630277     0.02951      0.216023     0.096434   
H2       H      0.630279     0.470495     0.716024     0.096583   
H2       H      0.199776     0.116941     0.026085     0.098147   
H2       H      0.199765     0.883045     0.473913     0.097827   
H2       H      0.199777     0.616941     0.973915     0.098146   
H2       H      0.199777     0.383059     0.526085     0.098131   
H2       H      0.800223     0.116942     0.526085     0.098107   
H2       H      0.800234     0.883045     0.973913     0.097817   
H2       H      0.800223     0.616942     0.473915     0.098112   
H2       H      0.800223     0.383058     0.026085     0.098083   
H2       H      0.366955     0.449766     0.276087     0.09781    
H2       H      0.366955     0.050234     0.776087     0.097808   
H2       H      0.366955     0.949766     0.723913     0.097822   
H2       H      0.366955     0.550234     0.223913     0.097807   
H2       H      0.133059     0.449776     0.723915     0.098169   
H2       H      0.133059     0.050223     0.223915     0.098148   
H2       H      0.133059     0.949777     0.276085     0.098141   
H2       H      0.133059     0.550223     0.776085     0.098128   
H2       H      0.699777     0.116942     0.473915     0.098104   
H2       H      0.699766     0.883045     0.026087     0.097842   
H2       H      0.699777     0.616942     0.526085     0.098159   
H2       H      0.699777     0.383058     0.973915     0.098098   
H2       H      0.300224     0.116941     0.973915     0.09815    
H2       H      0.300237     0.883047     0.526088     0.097799   
H2       H      0.300224     0.616942     0.026085     0.098163   
H2       H      0.300224     0.383059     0.473915     0.09815    
H2       H      0.866941     0.449777     0.223915     0.098145   
H2       H      0.866941     0.050223     0.723916     0.098163   
H2       H      0.866941     0.949777     0.776086     0.098251   
H2       H      0.866942     0.550223     0.276085     0.098166   
H2       H      0.633059     0.449777     0.776085     0.098138   
H2       H      0.633059     0.050223     0.276084     0.098201   
H2       H      0.633059     0.949777     0.223914     0.098295   
H2       H      0.633058     0.550223     0.723915     0.098156   
Ha       H      0.978834     0.467006     0.068421     0.102904   
Ha       H      0.092442     0.486625     0.074437     0.101538   
Ha       H      0.955306     0.511738     0.176646     0.097872   
Ha       H      0.069035     0.53013      0.182896     0.101898   
Ha       H      0.955302     0.488255     0.323354     0.097744   
Ha       H      0.069031     0.469843     0.317106     0.101849   
Ha       H      0.978837     0.532997     0.431576     0.102818   
Ha       H      0.092441     0.513376     0.425559     0.101479   
Ha       H      0.978832     0.033001     0.568398     0.101019   
Ha       H      0.092446     0.013316     0.574429     0.102391   
Ha       H      0.955315     0.98826      0.676622     0.098208   
Ha       H      0.069031     0.969869     0.682901     0.101605   
Ha       H      0.478837     0.532997     0.068425     0.102753   
Ha       H      0.592441     0.513377     0.074439     0.101597   
Ha       H      0.569033     0.469842     0.182895     0.101774   
Ha       H      0.407558     0.013375     0.425563     0.101408   
Ha       H      0.430965     0.96987      0.317103     0.101962   
Ha       H      0.521166     0.032994     0.431579     0.102887   
Ha       H      0.544694     0.988262     0.323354     0.097902   
Ha       H      0.455303     0.488255     0.176646     0.09783    
Ha       H      0.569036     0.53013      0.317104     0.101893   
Ha       H      0.455307     0.511738     0.323354     0.097813   
Ha       H      0.478835     0.467006     0.431578     0.102838   
Ha       H      0.592442     0.486625     0.425564     0.101446   
Ha       H      0.521163     0.967003     0.068424     0.10286    
Ha       H      0.407559     0.986624     0.074441     0.101515   
Ha       H      0.43097      0.030157     0.182894     0.101844   
Ha       H      0.544698     0.011745     0.176646     0.097743   
Ha       H      0.407552     0.513379     0.574438     0.102207   
Ha       H      0.521168     0.533011     0.568401     0.101044   
Ha       H      0.430971     0.469839     0.682894     0.101422   
Ha       H      0.544688     0.48825      0.676625     0.097991   
Ha       H      0.478833     0.96699      0.568402     0.101004   
Ha       H      0.592448     0.986621     0.574437     0.102248   
Ha       H      0.455312     0.01175      0.676625     0.098117   
Ha       H      0.569029     0.030161     0.682893     0.101351   
Ha       H      0.430967     0.530135     0.817101     0.101513   
Ha       H      0.544684     0.511739     0.823378     0.098205   
Ha       H      0.407551     0.486623     0.925566     0.102159   
Ha       H      0.52117      0.466993     0.931601     0.101141   
Ha       H      0.455315     0.98826      0.823378     0.098314   
Ha       H      0.569032     0.969869     0.8171       0.101625   
Ha       H      0.478832     0.033001     0.931601     0.100893   
Ha       H      0.592447     0.013316     0.925572     0.102289   
Ha       H      0.930965     0.030131     0.317104     0.101856   
Ha       H      0.044694     0.011737     0.323354     0.097794   
Ha       H      0.907556     0.986625     0.425566     0.101389   
Ha       H      0.021164     0.967007     0.431577     0.102883   
Ha       H      0.930967     0.969875     0.182896     0.101877   
Ha       H      0.044695     0.988262     0.176644     0.097899   
Ha       H      0.907559     0.013315     0.074431     0.101901   
Ha       H      0.021164     0.032988     0.06842      0.102843   
Ha       H      0.90755      0.486623     0.574433     0.102075   
Ha       H      0.021169     0.466993     0.568399     0.101232   
Ha       H      0.930967     0.530135     0.682899     0.101544   
Ha       H      0.044684     0.511739     0.676622     0.098299   
Ha       H      0.930971     0.469839     0.817107     0.101327   
Ha       H      0.044688     0.488251     0.823375     0.098074   
Ha       H      0.90755      0.513379     0.925563     0.102174   
Ha       H      0.021167     0.533011     0.931599     0.101096   
Ha       H      0.955312     0.01175      0.823375     0.09797    
Ha       H      0.069029     0.030161     0.817106     0.101427   
Ha       H      0.978832     0.966989     0.931599     0.101023   
Ha       H      0.092448     0.986621     0.925562     0.102223   
Ha       H      0.738262     0.794685     0.926623     0.098278   
Ha       H      0.719864     0.680968     0.932899     0.101488   
Ha       H      0.783006     0.771169     0.818401     0.10139    
Ha       H      0.763377     0.657551     0.824433     0.101842   
Ha       H      0.280159     0.819023     0.93289      0.101456   
Ha       H      0.261749     0.705314     0.926621     0.098343   
Ha       H      0.236621     0.842445     0.824439     0.102376   
Ha       H      0.216987     0.728831     0.818399     0.100759   
Ha       H      0.736624     0.842449     0.675567     0.101875   
Ha       H      0.716994     0.728831     0.681599     0.101404   
Ha       H      0.780136     0.819032     0.567101     0.101498   
Ha       H      0.761739     0.705315     0.573377     0.098262   
Ha       H      0.283007     0.77117      0.681601     0.101122   
Ha       H      0.263377     0.657551     0.675566     0.102164   
Ha       H      0.238261     0.794684     0.573378     0.09821    
Ha       H      0.219865     0.680967     0.567101     0.101474   
Ha       H      0.719869     0.819035     0.432897     0.101969   
Ha       H      0.738263     0.705305     0.426646     0.097706   
Ha       H      0.763375     0.842442     0.324436     0.101351   
Ha       H      0.782994     0.728835     0.318423     0.10273    
Ha       H      0.261745     0.794697     0.426643     0.097883   
Ha       H      0.280154     0.680974     0.432891     0.101886   
Ha       H      0.217001     0.771164     0.318422     0.102609   
Ha       H      0.236624     0.657561     0.324443     0.101672   
Ha       H      0.716994     0.771169     0.181599     0.101362   
Ha       H      0.736624     0.657551     0.175567     0.101822   
Ha       H      0.761739     0.794685     0.073377     0.098315   
Ha       H      0.780136     0.680968     0.0671       0.10151    
Ha       H      0.263377     0.842449     0.175566     0.102141   
Ha       H      0.283007     0.72883      0.181601     0.10106    
Ha       H      0.219865     0.819033     0.067101     0.101507   
Ha       H      0.238261     0.705316     0.073377     0.098268   
Ha       H      0.761739     0.294685     0.926623     0.098014   
Ha       H      0.780136     0.180967     0.932899     0.101505   
Ha       H      0.716994     0.271168     0.818401     0.101678   
Ha       H      0.736623     0.15755      0.824432     0.101565   
Ha       H      0.219865     0.319033     0.932898     0.10151    
Ha       H      0.238261     0.205316     0.926623     0.098261   
Ha       H      0.263377     0.342449     0.824433     0.102088   
Ha       H      0.283007     0.228831     0.8184       0.101215   
Ha       H      0.763377     0.34245      0.675568     0.101605   
Ha       H      0.783006     0.228832     0.681599     0.101691   
Ha       H      0.719864     0.319033     0.567101     0.101493   
Ha       H      0.738261     0.205315     0.573377     0.098014   
Ha       H      0.216987     0.271169     0.681601     0.100936   
Ha       H      0.236621     0.157554     0.675561     0.102379   
Ha       H      0.261749     0.294686     0.573379     0.098199   
Ha       H      0.280158     0.180977     0.56711      0.101416   
Ha       H      0.780131     0.319036     0.432896     0.101915   
Ha       H      0.761737     0.205306     0.426647     0.097865   
Ha       H      0.736625     0.342443     0.324435     0.101299   
Ha       H      0.717007     0.228836     0.318423     0.102891   
Ha       H      0.238262     0.294694     0.426646     0.097755   
Ha       H      0.21987      0.180965     0.432896     0.101874   
Ha       H      0.282994     0.271165     0.318422     0.102837   
Ha       H      0.263375     0.157558     0.324436     0.101472   
Ha       H      0.783006     0.271168     0.181599     0.101656   
Ha       H      0.763377     0.157551     0.175568     0.101618   
Ha       H      0.738261     0.294685     0.073376     0.098005   
Ha       H      0.719864     0.180967     0.067101     0.101517   
Ha       H      0.236621     0.342446     0.175561     0.102342   
Ha       H      0.216987     0.228831     0.181601     0.100848   
Ha       H      0.280158     0.319024     0.06711      0.101434   
Ha       H      0.261749     0.205314     0.073379     0.09825    
C2       C      0.230565     0.905151     0.119827     0.678158   
C2       C      0.230566     0.094839     0.380191     0.678969   
C2       C      0.230576     0.405155     0.880197     0.678157   
C2       C      0.230569     0.594849     0.61982      0.677487   
C2       C      0.769438     0.905154     0.619831     0.678223   
C2       C      0.769431     0.094842     0.880186     0.678275   
C2       C      0.769442     0.405164     0.380178     0.678693   
C2       C      0.769443     0.594846     0.119839     0.678552   
C2       C      0.155157     0.480551     0.369826     0.678563   
C2       C      0.155152     0.019438     0.869822     0.678348   
C2       C      0.155154     0.980559     0.630169     0.678243   
C2       C      0.155158     0.519444     0.130172     0.678716   
C2       C      0.344848     0.480558     0.630176     0.678578   
C2       C      0.344842     0.019448     0.13018      0.678616   
C2       C      0.34484      0.98055      0.369833     0.679031   
C2       C      0.344845     0.51944      0.86983      0.678256   
C2       C      0.730551     0.905158     0.380164     0.678993   
C2       C      0.730566     0.094842     0.11982      0.678543   
C2       C      0.730569     0.405158     0.619814     0.678378   
C2       C      0.730561     0.594846     0.880167     0.678208   
C2       C      0.269437     0.905148     0.880179     0.678182   
C2       C      0.269428     0.094847     0.619801     0.679302   
C2       C      0.269433     0.405152     0.11981      0.678639   
C2       C      0.269448     0.594846     0.380175     0.678802   
C2       C      0.655163     0.480565     0.130199     0.678371   
C2       C      0.655154     0.01943      0.630197     0.679132   
C2       C      0.655157     0.980568     0.869811     0.678129   
C2       C      0.655162     0.519439     0.369817     0.678476   
C2       C      0.844846     0.480571     0.869802     0.679146   
C2       C      0.844837     0.019434     0.369807     0.67846    
C2       C      0.844842     0.980563     0.130191     0.678975   
C2       C      0.844844     0.519429     0.630188     0.67816    
Ca1      C      0.240131     0.837366     0.121144    -0.07255    
Ca1      C      0.240148     0.162631     0.378812    -0.073888   
Ca1      C      0.240131     0.337366     0.878852    -0.072424   
Ca1      C      0.240131     0.662635     0.621145    -0.072547   
Ca1      C      0.759869     0.837367     0.621147    -0.073116   
Ca1      C      0.759869     0.162632     0.878851    -0.07353    
Ca1      C      0.759853     0.33737      0.378811    -0.074149   
Ca1      C      0.759869     0.662633     0.121146    -0.073122   
Ca1      C      0.087381     0.490132     0.371185    -0.074212   
Ca1      C      0.087378     0.00988402   0.871148    -0.073982   
Ca1      C      0.087365     0.990123     0.628856    -0.072225   
Ca1      C      0.087368     0.509852     0.128816    -0.074026   
Ca1      C      0.412621     0.490117     0.628852    -0.074086   
Ca1      C      0.412618     0.009867     0.128814    -0.074263   
Ca1      C      0.41263      0.990149     0.371184    -0.074003   
Ca1      C      0.412633     0.509868     0.871144    -0.072631   
Ca1      C      0.740148     0.83737      0.378814    -0.073897   
Ca1      C      0.740131     0.162632     0.121148    -0.073625   
Ca1      C      0.740131     0.337368     0.621149    -0.073629   
Ca1      C      0.740131     0.662633     0.878853    -0.072922   
Ca1      C      0.259884     0.837373     0.878855    -0.073928   
Ca1      C      0.259885     0.162624     0.621149    -0.074296   
Ca1      C      0.259885     0.337376     0.121148    -0.074323   
Ca1      C      0.259868     0.662624     0.378817    -0.073917   
Ca1      C      0.587377     0.490131     0.128814    -0.073765   
Ca1      C      0.587381     0.00988499   0.628848    -0.073786   
Ca1      C      0.587366     0.990122     0.871147    -0.072518   
Ca1      C      0.587369     0.509853     0.371187    -0.073859   
Ca1      C      0.912618     0.490115     0.871152    -0.073862   
Ca1      C      0.912629     0.00985299   0.371191    -0.073913   
Ca1      C      0.912627     0.990139     0.128812    -0.073819   
Ca1      C      0.912633     0.50987      0.628853    -0.072868   
Ca2      C      0.257988     0.811257     0.153803    -0.086852   
Ca2      C      0.257962     0.188686     0.346236    -0.08477    
Ca2      C      0.257986     0.311256     0.846198    -0.086697   
Ca2      C      0.257988     0.688743     0.653803    -0.086719   
Ca2      C      0.742015     0.811258     0.653801    -0.086177   
Ca2      C      0.742016     0.188742     0.846201    -0.085592   
Ca2      C      0.742041     0.311315     0.346239    -0.084771   
Ca2      C      0.742015     0.688741     0.153801    -0.086156   
Ca2      C      0.06131      0.507957     0.40377     -0.084968   
Ca2      C      0.061256     0.992018     0.90381     -0.086697   
Ca2      C      0.061255     0.00796499   0.596196    -0.087424   
Ca2      C      0.061315     0.492037     0.096234    -0.084973   
Ca2      C      0.438744     0.507982     0.59619     -0.086627   
Ca2      C      0.43869      0.992043     0.09623     -0.084907   
Ca2      C      0.438685     0.00796402   0.403765    -0.084823   
Ca2      C      0.438742     0.492012     0.903803    -0.08699    
Ca2      C      0.757961     0.811315     0.346237    -0.084855   
Ca2      C      0.757984     0.188741     0.153799    -0.08562    
Ca2      C      0.757984     0.311258     0.653799    -0.085547   
Ca2      C      0.757985     0.688742     0.846199    -0.086196   
Ca2      C      0.242018     0.811252     0.846186    -0.086938   
Ca2      C      0.242018     0.188747     0.653813    -0.086576   
Ca2      C      0.242018     0.311253     0.153813    -0.086716   
Ca2      C      0.242042     0.688692     0.346226    -0.085447   
Ca2      C      0.56131      0.507957     0.09623     -0.085191   
Ca2      C      0.561255     0.992019     0.596192    -0.086678   
Ca2      C      0.561255     0.00796499   0.903803    -0.087028   
Ca2      C      0.561314     0.492038     0.403764    -0.084826   
Ca2      C      0.938744     0.507981     0.903808    -0.086296   
Ca2      C      0.938685     0.992041     0.403761    -0.084592   
Ca2      C      0.938689     0.00794201   0.096234    -0.085611   
Ca2      C      0.938742     0.492013     0.596198    -0.086507   
Ca2      C      0.233671     0.799002     0.092324    -0.09063    
Ca2      C      0.233651     0.200982     0.407718    -0.089928   
Ca2      C      0.233669     0.299003     0.907677    -0.09096    
Ca2      C      0.23367      0.700997     0.592324    -0.090663   
Ca2      C      0.766331     0.798996     0.592323    -0.090125   
Ca2      C      0.766331     0.201005     0.907678    -0.090057   
Ca2      C      0.766349     0.299011     0.407718    -0.08981    
Ca2      C      0.76633      0.701005     0.092324    -0.090063   
Ca2      C      0.048993     0.483624     0.342281    -0.08932    
Ca2      C      0.048983     0.016363     0.842315    -0.089702   
Ca2      C      0.049004     0.983673     0.657678    -0.090906   
Ca2      C      0.049019     0.516348     0.157717    -0.089597   
Ca2      C      0.451017     0.483637     0.657685    -0.089641   
Ca2      C      0.451006     0.016376     0.15772     -0.089377   
Ca2      C      0.450981     0.983653     0.342283    -0.089667   
Ca2      C      0.450997     0.516329     0.842324    -0.09067    
Ca2      C      0.733652     0.799011     0.407717    -0.090002   
Ca2      C      0.733669     0.201005     0.092322    -0.089973   
Ca2      C      0.733669     0.298996     0.592322    -0.089987   
Ca2      C      0.73367      0.701004     0.907676    -0.090233   
Ca2      C      0.266365     0.798985     0.907682    -0.089735   
Ca2      C      0.266366     0.201015     0.592316    -0.089522   
Ca2      C      0.266365     0.298984     0.092316    -0.089503   
Ca2      C      0.266377     0.701004     0.407718    -0.08966    
Ca2      C      0.548993     0.483626     0.157715    -0.089345   
Ca2      C      0.548982     0.016365     0.657686    -0.089627   
Ca2      C      0.549003     0.983671     0.84232     -0.0909     
Ca2      C      0.549018     0.516349     0.342282    -0.089902   
Ca2      C      0.951017     0.483635     0.842314    -0.089562   
Ca2      C      0.950987     0.016349     0.342281    -0.089991   
Ca2      C      0.950981     0.983654     0.157722    -0.08988    
Ca2      C      0.950996     0.516331     0.657677    -0.090619   
C2       C      0.107449     0.020608     0.1211       0.67489    
C2       C      0.107466     0.979392     0.378894     0.674916   
C2       C      0.107456     0.520601     0.878898     0.674643   
C2       C      0.107442     0.479403     0.621087     0.675244   
C2       C      0.892556     0.02061      0.621107     0.673779   
C2       C      0.89254      0.97939      0.878878     0.674416   
C2       C      0.892531     0.520614     0.378874     0.675013   
C2       C      0.892547     0.479386     0.12112      0.673196   
C2       C      0.270605     0.357453     0.371094     0.674725   
C2       C      0.270602     0.142556     0.871091     0.674904   
C2       C      0.270607     0.857447     0.628892     0.673819   
C2       C      0.270603     0.642551     0.1289       0.674422   
C2       C      0.229381     0.357464     0.628906     0.674932   
C2       C      0.229384     0.142535     0.128914     0.675189   
C2       C      0.229373     0.857476     0.371112     0.675055   
C2       C      0.229376     0.642533     0.871109     0.674748   
C2       C      0.607455     0.020611     0.378888     0.674122   
C2       C      0.607468     0.979384     0.121132     0.675482   
C2       C      0.607462     0.52061      0.62112      0.674424   
C2       C      0.607446     0.479393     0.878891     0.673795   
C2       C      0.392557     0.020604     0.87891      0.674813   
C2       C      0.392543     0.979396     0.621102     0.674344   
C2       C      0.392533     0.520611     0.121113     0.674366   
C2       C      0.392546     0.479395     0.378907     0.674444   
C2       C      0.770603     0.357458     0.128908     0.674438   
C2       C      0.770607     0.142543     0.6289       0.674313   
C2       C      0.770612     0.857461     0.871116     0.674193   
C2       C      0.770615     0.64253      0.37112      0.674763   
C2       C      0.729394     0.357456     0.871099     0.674531   
C2       C      0.72939      0.142532     0.371104     0.67505    
C2       C      0.729391     0.857462     0.128891     0.674966   
C2       C      0.729388     0.642539     0.628883     0.674416   
Ca1      C      0.039527     0.011439     0.122137    -0.072898   
Ca1      C      0.039526     0.988563     0.377858    -0.07296    
Ca1      C      0.039545     0.51145      0.877918    -0.074321   
Ca1      C      0.039546     0.488543     0.622077    -0.074947   
Ca1      C      0.960454     0.011464     0.622077    -0.074628   
Ca1      C      0.960454     0.988548     0.87792     -0.074993   
Ca1      C      0.960465     0.511434     0.377866    -0.072836   
Ca1      C      0.96047      0.488564     0.122134    -0.072221   
Ca1      C      0.261436     0.28953      0.372137    -0.072752   
Ca1      C      0.261459     0.210453     0.872078    -0.074939   
Ca1      C      0.261459     0.789546     0.627924    -0.074428   
Ca1      C      0.261459     0.710454     0.127923    -0.07455    
Ca1      C      0.238545     0.289549     0.627928    -0.074811   
Ca1      C      0.238545     0.210452     0.127928    -0.075107   
Ca1      C      0.238563     0.789535     0.372126    -0.073248   
Ca1      C      0.238543     0.710452     0.87207     -0.075396   
Ca1      C      0.539529     0.011436     0.377865    -0.07236    
Ca1      C      0.539535     0.988567     0.122134    -0.072746   
Ca1      C      0.539546     0.511452     0.62208     -0.074985   
Ca1      C      0.539546     0.488541     0.877924    -0.074466   
Ca1      C      0.460453     0.011464     0.877921    -0.075199   
Ca1      C      0.460453     0.988549     0.622083    -0.074099   
Ca1      C      0.460463     0.511433     0.122136    -0.072916   
Ca1      C      0.46047      0.488564     0.377863    -0.072765   
Ca1      C      0.761461     0.289546     0.127915    -0.074148   
Ca1      C      0.761461     0.210454     0.627916    -0.074306   
Ca1      C      0.761462     0.789544     0.872082    -0.074682   
Ca1      C      0.761439     0.710473     0.37214     -0.073005   
Ca1      C      0.73854      0.289546     0.872084    -0.074307   
Ca1      C      0.738562     0.210472     0.372142    -0.073099   
Ca1      C      0.738538     0.789544     0.127918    -0.074792   
Ca1      C      0.738539     0.710456     0.627918    -0.074746   
Ca2      C      0.013595     0.99363      0.154916    -0.076616   
Ca2      C      0.013589     0.00637102   0.345087    -0.076422   
Ca2      C      0.013554     0.493587     0.845055    -0.076242   
Ca2      C      0.013564     0.506406     0.65495     -0.075845   
Ca2      C      0.986433     0.993598     0.654953    -0.075909   
Ca2      C      0.986443     0.00641301   0.845052    -0.075857   
Ca2      C      0.986421     0.493616     0.345079    -0.077096   
Ca2      C      0.986404     0.506375     0.154917    -0.076959   
Ca2      C      0.243626     0.263594     0.404914    -0.07651    
Ca2      C      0.243595     0.236435     0.90495     -0.07573    
Ca2      C      0.243594     0.763567     0.595048    -0.07608    
Ca2      C      0.243594     0.736434     0.095048    -0.076131   
Ca2      C      0.256418     0.263559     0.595047    -0.076451   
Ca2      C      0.256418     0.236441     0.095047    -0.07637    
Ca2      C      0.25639      0.763584     0.404927    -0.07687    
Ca2      C      0.256419     0.736439     0.904955    -0.076434   
Ca2      C      0.513595     0.993625     0.345083    -0.076885   
Ca2      C      0.51358      0.00638402   0.154921    -0.077109   
Ca2      C      0.513557     0.493587     0.654948    -0.075888   
Ca2      C      0.513567     0.506406     0.845048    -0.075968   
Ca2      C      0.486435     0.993599     0.845049    -0.075847   
Ca2      C      0.486445     0.006412     0.654945    -0.076278   
Ca2      C      0.486427     0.493616     0.154918    -0.077208   
Ca2      C      0.486406     0.506374     0.345085    -0.076475   
Ca2      C      0.743598     0.263561     0.095053    -0.075882   
Ca2      C      0.743598     0.236439     0.595052    -0.075854   
Ca2      C      0.743597     0.763563     0.90495     -0.076213   
Ca2      C      0.743628     0.736409     0.404915    -0.076441   
Ca2      C      0.756402     0.263561     0.904948    -0.07581    
Ca2      C      0.756371     0.23641      0.404913    -0.076477   
Ca2      C      0.756403     0.763562     0.09505     -0.076227   
Ca2      C      0.756403     0.736437     0.59505     -0.076232   
Ca2      C      0.00129601   0.018363     0.09356     -0.082147   
Ca2      C      0.00129601   0.981625     0.406443    -0.082631   
Ca2      C      0.00124001   0.518345     0.906412    -0.079038   
Ca2      C      0.00124399   0.481652     0.593588    -0.078807   
Ca2      C      0.998756     0.018341     0.59359     -0.07821    
Ca2      C      0.998758     0.981656     0.906409    -0.078357   
Ca2      C      0.998704     0.518367     0.406438    -0.082226   
Ca2      C      0.998702     0.481631     0.093564    -0.082615   
Ca2      C      0.26837      0.251298     0.343562    -0.082439   
Ca2      C      0.268349     0.248755     0.843588    -0.078532   
Ca2      C      0.268348     0.751245     0.65641     -0.078521   
Ca2      C      0.268348     0.748754     0.15641     -0.078444   
Ca2      C      0.231659     0.251237     0.656409    -0.078268   
Ca2      C      0.231659     0.248762     0.156409    -0.077997   
Ca2      C      0.231636     0.751292     0.343564    -0.081788   
Ca2      C      0.231659     0.748762     0.843593    -0.077636   
Ca2      C      0.501298     0.018369     0.406436    -0.082584   
Ca2      C      0.501295     0.981633     0.093562    -0.082401   
Ca2      C      0.501242     0.518344     0.593591    -0.078399   
Ca2      C      0.501245     0.481652     0.90641     -0.078417   
Ca2      C      0.498757     0.018341     0.906412    -0.078072   
Ca2      C      0.498758     0.981655     0.593589    -0.078828   
Ca2      C      0.498707     0.518368     0.093559    -0.082136   
Ca2      C      0.498702     0.48163      0.406438    -0.082457   
Ca2      C      0.768353     0.251246     0.156416    -0.080049   
Ca2      C      0.768353     0.248755     0.656416    -0.079997   
Ca2      C      0.768353     0.751246     0.843586    -0.079295   
Ca2      C      0.768374     0.748701     0.343559    -0.082302   
Ca2      C      0.731647     0.251246     0.843584    -0.079971   
Ca2      C      0.731625     0.248702     0.343557    -0.082494   
Ca2      C      0.731647     0.751246     0.156414    -0.079252   
Ca2      C      0.731647     0.748754     0.656414    -0.079259   
C3       C      0.300641     0.999444     0.024163    -0.074992   
C3       C      0.300661     0.000514983  0.475841    -0.07409    
C3       C      0.300641     0.499444     0.975837    -0.07505    
C3       C      0.300641     0.500556     0.524163    -0.07503    
C3       C      0.699359     0.999444     0.524163    -0.075072   
C3       C      0.699339     0.000517018  0.975842    -0.074523   
C3       C      0.699359     0.499444     0.475837    -0.075029   
C3       C      0.699359     0.500556     0.024164    -0.075005   
C3       C      0.249483     0.550661     0.274159    -0.074346   
C3       C      0.249483     0.949339     0.774158    -0.074489   
C3       C      0.249483     0.050661     0.725841    -0.07426    
C3       C      0.249484     0.449339     0.225841    -0.074216   
C3       C      0.250556     0.550641     0.725837    -0.074975   
C3       C      0.250556     0.949359     0.225837    -0.074961   
C3       C      0.250556     0.050641     0.274163    -0.075146   
C3       C      0.250556     0.449359     0.774163    -0.075118   
C3       C      0.800641     0.999444     0.475836    -0.075037   
C3       C      0.800661     0.000517018  0.024159    -0.074321   
C3       C      0.800641     0.499444     0.524163    -0.075097   
C3       C      0.800641     0.500556     0.975837    -0.075125   
C3       C      0.199359     0.999444     0.975837    -0.07502    
C3       C      0.199339     0.000512995  0.524162    -0.074358   
C3       C      0.199359     0.499444     0.024163    -0.075026   
C3       C      0.199359     0.500556     0.475837    -0.075041   
C3       C      0.749444     0.550641     0.225837    -0.075039   
C3       C      0.749448     0.949361     0.725839    -0.075006   
C3       C      0.749376     0.050613     0.774166    -0.075911   
C3       C      0.749444     0.449359     0.274163    -0.075142   
C3       C      0.750556     0.550641     0.774163    -0.075043   
C3       C      0.750552     0.949361     0.274162    -0.074983   
C3       C      0.750624     0.050613     0.225835    -0.075738   
C3       C      0.750556     0.449359     0.725837    -0.075003   
C3       C      0.1907       0.997242     0.01554     -0.070678   
C3       C      0.190762     0.00284998   0.484459    -0.070116   
C3       C      0.1907       0.497242     0.98446     -0.070501   
C3       C      0.1907       0.502758     0.51554     -0.070309   
C3       C      0.8093       0.997242     0.51554     -0.07079    
C3       C      0.809237     0.00284998   0.98446     -0.069988   
C3       C      0.8093       0.497242     0.48446     -0.070536   
C3       C      0.809301     0.502758     0.01554     -0.070666   
C3       C      0.24715      0.440762     0.26554     -0.070024   
C3       C      0.24715      0.059238     0.76554     -0.070057   
C3       C      0.24715      0.940762     0.73446     -0.069719   
C3       C      0.24715      0.559238     0.23446     -0.070128   
C3       C      0.252758     0.4407       0.73446     -0.07076    
C3       C      0.252758     0.0593       0.23446     -0.070505   
C3       C      0.252758     0.9407       0.26554     -0.070934   
C3       C      0.252758     0.5593       0.76554     -0.070873   
C3       C      0.690699     0.997242     0.48446     -0.070706   
C3       C      0.690763     0.00284998   0.01554     -0.069551   
C3       C      0.6907       0.497242     0.51554     -0.070746   
C3       C      0.6907       0.502758     0.98446     -0.070725   
C3       C      0.3093       0.997242     0.98446     -0.070683   
C3       C      0.309232     0.00285599   0.515539    -0.070233   
C3       C      0.3093       0.497242     0.01554     -0.070502   
C3       C      0.3093       0.502758     0.48446     -0.070667   
C3       C      0.747242     0.4407       0.23446     -0.070244   
C3       C      0.747274     0.059321     0.734459    -0.069798   
C3       C      0.747223     0.940718     0.76554     -0.070819   
C3       C      0.747242     0.5593       0.26554     -0.070743   
C3       C      0.752758     0.4407       0.76554     -0.070679   
C3       C      0.752726     0.059321     0.265541    -0.069469   
C3       C      0.752778     0.940718     0.23446     -0.070744   
C3       C      0.752758     0.5593       0.73446     -0.070682   
C3       C      0.243803     0.094526     0.019707    -0.072215   
C3       C      0.24384      0.905465     0.480286    -0.071635   
C3       C      0.243803     0.594526     0.980293    -0.072094   
C3       C      0.243803     0.405474     0.519707    -0.072124   
C3       C      0.756197     0.094526     0.519707    -0.072217   
C3       C      0.75616      0.905465     0.980286    -0.071672   
C3       C      0.756198     0.594526     0.480293    -0.071902   
C3       C      0.756197     0.405474     0.019707    -0.072185   
C3       C      0.344535     0.493841     0.269714    -0.071715   
C3       C      0.344535     0.00616001   0.769714    -0.071688   
C3       C      0.344536     0.993841     0.730286    -0.071775   
C3       C      0.344535     0.506159     0.230286    -0.071812   
C3       C      0.155474     0.493803     0.730293    -0.072218   
C3       C      0.155474     0.006197     0.230293    -0.072152   
C3       C      0.155474     0.993803     0.269707    -0.072284   
C3       C      0.155474     0.506197     0.769707    -0.072264   
C3       C      0.743803     0.094526     0.480293    -0.072229   
C3       C      0.743841     0.905464     0.019714    -0.071815   
C3       C      0.743803     0.594526     0.519707    -0.072333   
C3       C      0.743803     0.405474     0.980293    -0.072231   
C3       C      0.256197     0.094526     0.980293    -0.072217   
C3       C      0.25615      0.905466     0.519714    -0.071734   
C3       C      0.256197     0.594526     0.019707    -0.072159   
C3       C      0.256197     0.405474     0.480293    -0.072221   
C3       C      0.844526     0.493803     0.230293    -0.072063   
C3       C      0.844523     0.006205     0.730295    -0.072215   
C3       C      0.844522     0.993795     0.769708    -0.072005   
C3       C      0.844526     0.506197     0.269707    -0.072248   
C3       C      0.655474     0.493803     0.769707    -0.072142   
C3       C      0.655477     0.006205     0.269705    -0.072357   
C3       C      0.655478     0.993795     0.230292    -0.072046   
C3       C      0.655474     0.506197     0.730293    -0.072243   
N3       N      0.241874     0.030372     0.032537    -0.135189   
N3       N      0.241857     0.9696       0.467459    -0.136547   
N3       N      0.241874     0.469629     0.532536    -0.135441   
N3       N      0.758126     0.030372     0.532537    -0.134971   
N3       N      0.758142     0.969598     0.967459    -0.136227   
N3       N      0.758127     0.530372     0.467463    -0.135199   
N3       N      0.280401     0.491858     0.282541    -0.136327   
N3       N      0.280402     0.991859     0.717459    -0.136237   
N3       N      0.280401     0.508141     0.217459    -0.135971   
N3       N      0.219628     0.491875     0.717464    -0.135145   
N3       N      0.219629     0.991874     0.282537    -0.134872   
N3       N      0.219628     0.508125     0.782537    -0.134853   
N3       N      0.741874     0.030371     0.467463    -0.134929   
N3       N      0.741874     0.530372     0.532537    -0.135058   
N3       N      0.741874     0.469628     0.967463    -0.134944   
N3       N      0.258136     0.969601     0.532541    -0.136046   
N3       N      0.258127     0.530372     0.032537    -0.13548    
N3       N      0.258126     0.469629     0.467463    -0.135242   
N3       N      0.780371     0.491874     0.217464    -0.135711   
N3       N      0.780364     0.00812999   0.717467    -0.135474   
N3       N      0.780371     0.508126     0.282537    -0.135023   
N3       N      0.719628     0.491874     0.782537    -0.135346   
N3       N      0.719637     0.00812999   0.282533    -0.135522   
N3       N      0.719628     0.508126     0.717463    -0.135106   
N3       N      0.241874     0.530372     0.967464    -0.135511   
N3       N      0.758126     0.469628     0.032537    -0.134973   
N3       N      0.280402     0.008141     0.78254     -0.136281   
N3       N      0.219629     0.008125     0.217464    -0.135441   
N3       N      0.741858     0.969599     0.032541    -0.136278   
N3       N      0.258126     0.030372     0.967463    -0.135189   
N3       N      0.780375     0.991904     0.78253     -0.134321   
N3       N      0.719625     0.991904     0.217471    -0.134709   
O1       O      0.243752     0.432801     0.908293    -0.593522   
O1       O      0.243756     0.567193     0.591698    -0.593707   
O1       O      0.756246     0.432813     0.408303    -0.594222   
O1       O      0.756242     0.567182     0.091689    -0.594673   
O1       O      0.182811     0.493754     0.341694    -0.594295   
O1       O      0.182815     0.993757     0.658307    -0.594293   
O1       O      0.182818     0.506242     0.15831     -0.594484   
O1       O      0.317192     0.493745     0.658302    -0.593817   
O1       O      0.317183     0.506251     0.841692    -0.594186   
O1       O      0.743753     0.432807     0.591702    -0.5936     
O1       O      0.743758     0.567186     0.908308    -0.59421    
O1       O      0.256251     0.432801     0.091705    -0.593662   
O1       O      0.256247     0.56719      0.408306    -0.59436    
O1       O      0.682797     0.493749     0.158291    -0.593528   
O1       O      0.682805     0.993753     0.841704    -0.593404   
O1       O      0.682812     0.506246     0.341698    -0.593927   
O1       O      0.817204     0.493749     0.84171     -0.593786   
O1       O      0.817195     0.00624898   0.341704    -0.593636   
O1       O      0.817191     0.993754     0.1583      -0.593954   
O1       O      0.817193     0.506247     0.658297    -0.593561   
O1       O      0.865323     0.988615     0.907968    -0.594395   
O2       O      0.261387     0.38467      0.342041    -0.593957   
O1       O      0.261389     0.115326     0.842035    -0.593945   
O2       O      0.261382     0.884679     0.657972    -0.593768   
O2       O      0.261382     0.615326     0.157968    -0.59386    
O2       O      0.238534     0.384662     0.657967    -0.59394    
O1       O      0.238534     0.115342     0.157963    -0.593866   
O1       O      0.238539     0.884661     0.342034    -0.594304   
O2       O      0.238539     0.615334     0.842027    -0.593942   
O1       O      0.634676     0.011382     0.407967    -0.594031   
O1       O      0.634676     0.988617     0.092034    -0.594721   
O2       O      0.634676     0.511385     0.592033    -0.594155   
O2       O      0.63468      0.488618     0.907972    -0.593698   
O1       O      0.365329     0.988607     0.59204     -0.594128   
O2       O      0.36533      0.511391     0.092044    -0.594072   
O2       O      0.365331     0.488613     0.407958    -0.593796   
O2       O      0.761389     0.384667     0.157956    -0.593951   
O1       O      0.761388     0.115328     0.65796     -0.594055   
O2       O      0.761383     0.884674     0.842034    -0.593973   
O2       O      0.761381     0.615329     0.34204     -0.594361   
O2       O      0.738611     0.384671     0.84204     -0.594137   
O2       O      0.738612     0.115334     0.342046    -0.593991   
O2       O      0.738617     0.884671     0.157962    -0.594316   
O2       O      0.738617     0.615325     0.657966    -0.594172   
O2       O      0.319103     0.53969      0.897668    -0.607749   
O2       O      0.319098     0.460307     0.602329    -0.608077   
O1       O      0.680906     0.9603       0.897676    -0.608182   
O2       O      0.680888     0.539689     0.397667    -0.607784   
O2       O      0.680897     0.460304     0.102326    -0.608328   
O2       O      0.289685     0.569116     0.352335    -0.60789    
O2       O      0.289701     0.43091      0.147678    -0.608131   
O2       O      0.210308     0.569099     0.647674    -0.607599   
O2       O      0.210299     0.430908     0.852319    -0.608419   
O1       O      0.819108     0.039692     0.397671    -0.608205   
O1       O      0.819108     0.960306     0.10233     -0.608156   
O2       O      0.819094     0.539698     0.602324    -0.60811    
O2       O      0.819088     0.460297     0.897681    -0.60883    
O1       O      0.180897     0.96031      0.602334    -0.607697   
O2       O      0.180881     0.539683     0.102338    -0.607759   
O2       O      0.180882     0.460317     0.397663    -0.607797   
O2       O      0.789685     0.569109     0.147663    -0.607436   
O2       O      0.789687     0.430884     0.352337    -0.607633   
O2       O      0.710313     0.569106     0.852334    -0.607589   
O2       O      0.710304     0.430903     0.647674    -0.608085   
O1       O      0.213865     0.116621     0.10035     -0.599022   
O1       O      0.213873     0.883365     0.399636    -0.598473   
O1       O      0.21387      0.616633     0.899638    -0.598142   
O1       O      0.213866     0.383375     0.600354    -0.598643   
O1       O      0.786153     0.116627     0.600356    -0.598134   
O2       O      0.786149     0.883365     0.899635    -0.597672   
O1       O      0.786146     0.616641     0.399633    -0.597986   
O1       O      0.786155     0.383378     0.100352    -0.598441   
O1       O      0.366622     0.46386      0.35035     -0.598922   
O1       O      0.36663      0.963845     0.649644    -0.598234   
O1       O      0.366641     0.53615      0.149636    -0.598032   
O2       O      0.713851     0.116633     0.399641    -0.598764   
O2       O      0.71385      0.883368     0.100362    -0.598213   
O1       O      0.713852     0.616636     0.600365    -0.597765   
O1       O      0.713846     0.383374     0.899644    -0.598279   
O1       O      0.286142     0.116618     0.899651    -0.598977   
O2       O      0.286138     0.883374     0.600358    -0.598103   
O1       O      0.286139     0.616622     0.100355    -0.598573   
O1       O      0.286139     0.383378     0.399649    -0.599096   
O1       O      0.86664      0.963851     0.850367    -0.597593   
O1       O      0.633374     0.463862     0.850358    -0.598084   
O1       O      0.633369     0.036135     0.35036     -0.598349   
O1       O      0.633351     0.963855     0.149626    -0.598308   
O1       O      0.63336      0.536149     0.649633    -0.59775    
O1       O      0.243756     0.932812     0.091694    -0.594105   
O1       O      0.243753     0.067192     0.408298    -0.593961   
O1       O      0.756243     0.932814     0.591693    -0.594186   
O2       O      0.756247     0.067193     0.908298    -0.593672   
O2       O      0.182805     0.00624699   0.841699    -0.593798   
O2       O      0.317191     0.00625402   0.158304    -0.594089   
O2       O      0.317177     0.99375      0.341687    -0.594969   
O2       O      0.743759     0.932822     0.408313    -0.594846   
O2       O      0.743754     0.067189     0.091699    -0.593751   
O1       O      0.256247     0.932805     0.908301    -0.593802   
O2       O      0.256252     0.067203     0.591709    -0.593765   
O2       O      0.682796     0.00625102   0.658291    -0.593787   
O2       O      0.134671     0.011388     0.092038    -0.594037   
O2       O      0.134665     0.988612     0.407956    -0.594178   
O2       O      0.134669     0.511392     0.90796     -0.594107   
O2       O      0.134671     0.488611     0.592036    -0.593781   
O2       O      0.865322     0.011383     0.592029    -0.593621   
O2       O      0.865327     0.511383     0.407962    -0.594564   
O2       O      0.86532      0.488619     0.092029    -0.593551   
O2       O      0.365328     0.011389     0.907964    -0.593729   
O2       O      0.319114     0.039686     0.102335    -0.607979   
O2       O      0.319123     0.960318     0.39766     -0.607508   
O2       O      0.680911     0.039702     0.60232     -0.60884    
O1       O      0.289694     0.930905     0.852326    -0.607849   
O2       O      0.289704     0.069086     0.647681    -0.608902   
O1       O      0.210311     0.930895     0.147671    -0.607697   
O1       O      0.210309     0.06911      0.35233     -0.608258   
O2       O      0.180903     0.039693     0.897672    -0.607904   
O1       O      0.789687     0.930895     0.647667    -0.607628   
O2       O      0.789697     0.069098     0.852326    -0.607982   
O2       O      0.71032      0.930875     0.352342    -0.607606   
O2       O      0.710305     0.0691       0.147671    -0.608038   
O2       O      0.366617     0.036143     0.850348    -0.598899   
O1       O      0.133378     0.463866     0.649652    -0.599339   
O2       O      0.13337      0.03613      0.149647    -0.598937   
O2       O      0.13336      0.963859     0.35036     -0.598614   
O1       O      0.133364     0.536145     0.850357    -0.598396   
O1       O      0.866635     0.463867     0.149637    -0.597778   
O2       O      0.866625     0.036138     0.649643    -0.598172   
O1       O      0.866645     0.536146     0.35037     -0.598084   
Zn       Zn     0.276681     0.478042     0.337875     0.889572   
Zn       Zn     0.276686     0.52196      0.162126     0.888829   
Zn       Zn     0.728045     0.526687     0.587877     0.888807   
Zn       Zn     0.72804      0.473311     0.912124     0.888672   
Zn       Zn     0.271956     0.526685     0.087876     0.889541   
Zn       Zn     0.271959     0.47332      0.412124     0.889421   
Zn       Zn     0.723315     0.478047     0.837875     0.889499   
Zn       Zn     0.723313     0.521954     0.662123     0.888728   
Zn       Zn     0.228038     0.026684     0.087876     0.889244   
Zn       Zn     0.228043     0.973318     0.412125     0.889386   
Zn       Zn     0.228043     0.526685     0.912125     0.889399   
Zn       Zn     0.228041     0.473315     0.587875     0.889315   
Zn       Zn     0.771961     0.026689     0.587876     0.888782   
Zn       Zn     0.771955     0.973312     0.912124     0.888936   
Zn       Zn     0.771958     0.526684     0.412123     0.888675   
Zn       Zn     0.771962     0.473314     0.087878     0.888535   
Zn       Zn     0.276685     0.021956     0.837874     0.889412   
Zn       Zn     0.276687     0.978042     0.662124     0.889009   
Zn       Zn     0.223308     0.478051     0.662126     0.889113   
Zn       Zn     0.223311     0.021948     0.162126     0.889338   
Zn       Zn     0.223309     0.978048     0.337876     0.888938   
Zn       Zn     0.223303     0.521953     0.837875     0.888772   
Zn       Zn     0.728041     0.026683     0.412123     0.888653   
Zn       Zn     0.728044     0.973313     0.087877     0.888771   
Zn       Zn     0.271957     0.026684     0.912125     0.889309   
Zn       Zn     0.271952     0.973315     0.587874     0.889569   
Zn       Zn     0.776682     0.478047     0.162125     0.889402   
Zn       Zn     0.776685     0.021953     0.662124     0.889515   
Zn       Zn     0.776689     0.978043     0.837879     0.888544   
Zn       Zn     0.776684     0.521957     0.337877     0.888679   
Zn       Zn     0.723318     0.021956     0.337876     0.889454   
Zn       Zn     0.723315     0.978044     0.162122     0.888655   


