data_DMOF

_audit_creation_method RASPA-1.0
_audit_creation_date 2013-2-5
_audit_author_name ''

_cell_length_a    21.9871236017
_cell_length_b    21.9871236017
_cell_length_c    38.6267737504
_cell_angle_alpha 90
_cell_angle_beta  90
_cell_angle_gamma 90
_cell_volume      18673.4804557418

_symmetry_cell_setting          triclinic
_symmetry_space_group_name_Hall 'P 1'
_symmetry_space_group_name_H-M  'P 1'
_symmetry_Int_Tables_number     1

_symmetry_equiv_pos_as_xyz 'x,y,z'

loop_
_atom_site_label
_atom_site_type_symbol
_atom_site_fract_x
_atom_site_fract_y
_atom_site_fract_z
_atom_site_charge
H2       H      0.326842     0.943093     0.0310891    0.0372     
H2       H      0.346168     0.0119791    0.469893     0.0372     
H2       H      0.238021     0.403832     0.969893     0.0372     
H2       H      0.28687      0.588089     0.530396     0.0372     
H2       H      0.653833     0.98802      0.530108     0.0372     
H2       H      0.673159     0.0569059    0.968912     0.0372     
H2       H      0.71313      0.411909     0.469605     0.0372     
H2       H      0.76198      0.596167     0.0301084    0.0372     
H2       H      0.193094     0.576841     0.281089     0.0372     
H2       H      0.238021     0.903832     0.780108     0.0372     
H2       H      0.153833    -0.0119805    0.719893     0.0372     
H2       H      0.16191      0.463129     0.219605     0.0372     
H2       H      0.26198      0.596167     0.719893     0.0372     
H2       H      0.306907     0.923157     0.218912     0.0372     
H2       H      0.338091     0.0368693    0.280396     0.0372     
H2       H      0.346168     0.511979     0.780108     0.0372     
H2       H      0.738021     0.903832     0.469893     0.0372     
H2       H      0.78687      0.0880894    0.0303964    0.0372     
H2       H      0.826842     0.443093     0.531089     0.0372     
H2       H      0.846168     0.511979     0.969893     0.0372     
H2       H      0.21313      0.911909     0.969605     0.0372     
H2       H      0.26198      0.0961669    0.530108     0.0372     
H2       H      0.153833     0.48802      0.0301084    0.0372     
H2       H      0.173159     0.556906     0.468912     0.0372     
H2       H      0.653833     0.48802      0.219893     0.0372     
H2       H      0.66191      0.963129     0.719605     0.0372     
H2       H      0.693094     0.0768412    0.781089     0.0372     
H2       H      0.738021     0.403832     0.280108     0.0372     
H2       H      0.838091     0.536869     0.780396     0.0372     
H2       H      0.846168     1.01198      0.280108     0.0372     
H2       H      0.76198      0.0961669    0.219893     0.0372     
H2       H      0.806907     0.423157     0.718912     0.0372     
H2       H      0.343354     0.022098     0.0281567    0.0372     
H2       H      0.320893     0.935273     0.472453     0.0372     
H2       H      0.314727     0.429107     0.972453     0.0372     
H2       H      0.340475     0.5277       0.52808      0.0372     
H2       H      0.679108     0.0647258    0.527548     0.0372     
H2       H      0.656647     0.977901     0.971844     0.0372     
H2       H      0.659526     0.472299     0.471921     0.0372     
H2       H      0.685274     0.570892     0.0275477    0.0372     
H2       H      0.272099     0.593353     0.278157     0.0372     
H2       H      0.314727     0.929107     0.777548     0.0372     
H2       H      0.179108     0.0647258    0.722453     0.0372     
H2       H      0.2223       0.409525     0.221921     0.0372     
H2       H      0.185274     0.570892     0.722453     0.0372     
H2       H      0.227902     0.906646     0.221844     0.0372     
H2       H      0.277701     0.0904733    0.27808      0.0372     
H2       H      0.320893     0.435273     0.777548     0.0372     
H2       H      0.814727    -0.070893     0.472453     0.0372     
H2       H      0.840475     1.0277       0.0280795    0.0372     
H2       H      0.843354     0.522098     0.528157     0.0372     
H2       H      0.820893     0.435273     0.972453     0.0372     
H2       H      0.159526    -0.0277009    0.971921     0.0372     
H2       H      0.185274     1.07089      0.527548     0.0372     
H2       H      0.179108     0.564726     0.0275477    0.0372     
H2       H      0.156647     0.477901     0.471844     0.0372     
H2       H      0.679108     0.564726     0.222453     0.0372     
H2       H      0.7223       0.909525     0.721921     0.0372     
H2       H      0.772099     0.0933527    0.778157     0.0372     
H2       H      0.814727     0.429107     0.277548     0.0372     
H2       H      0.777701     0.590473     0.77808      0.0372     
H2       H      0.820893     0.935273     0.277548     0.0372     
H2       H      0.685274     0.0708916    0.222453     0.0372     
H2       H      0.727902     0.406646     0.721844     0.0372     
H2       H      0.16191     -0.0368707    0.0303964    0.0372     
H2       H      0.193094     1.07684      0.468912     0.0372     
H2       H      0.173159     0.556906     0.968912     0.0372     
H2       H      0.153833     0.48802      0.530108     0.0372     
H2       H      0.806907    -0.0768426    0.531089     0.0372     
H2       H      0.838091     1.03687      0.969605     0.0372     
H2       H      0.846168     0.511979     0.469893     0.0372     
H2       H      0.826842     0.443093     0.0310891    0.0372     
H2       H      0.21313      0.411909     0.280396     0.0372     
H2       H      0.173159     0.0569059    0.781089     0.0372     
H2       H      0.306907     0.923157     0.718912     0.0372     
H2       H      0.26198      0.596167     0.219893     0.0372     
H2       H      0.326842     0.443093     0.718912     0.0372     
H2       H      0.28687      0.0880894    0.219605     0.0372     
H2       H      0.238021     0.903832     0.280108     0.0372     
H2       H      0.193094     0.576841     0.781089     0.0372     
H2       H      0.673159     0.0569059    0.468912     0.0372     
H2       H      0.653833     0.98802      0.0301084    0.0372     
H2       H      0.66191      0.463129     0.530396     0.0372     
H2       H      0.693094     0.576841     0.968912     0.0372     
H2       H      0.346168     0.0119791    0.969893     0.0372     
H2       H      0.326842     0.943093     0.531089     0.0372     
H2       H      0.306907     0.423157     0.0310891    0.0372     
H2       H      0.338091     0.536869     0.469605     0.0372     
H2       H      0.806907     0.423157     0.218912     0.0372     
H2       H      0.76198      0.0961669    0.719893     0.0372     
H2       H      0.71313      0.911909     0.780396     0.0372     
H2       H      0.673159     0.556906     0.281089     0.0372     
H2       H      0.738021     0.403832     0.780108     0.0372     
H2       H      0.693094     0.0768412    0.281089     0.0372     
H2       H      0.826842     0.943093     0.218912     0.0372     
H2       H      0.78687      0.588089     0.719605     0.0372     
H2       H      0.2223       0.909525     0.0280795    0.0372     
H2       H      0.272099     0.0933527    0.471844     0.0372     
H2       H      0.156647     0.477901     0.971844     0.0372     
H2       H      0.179108     0.564726     0.527548     0.0372     
H2       H      0.727902     0.906646     0.528157     0.0372     
H2       H      0.777701     0.0904733    0.971921     0.0372     
H2       H      0.820893     0.435273     0.472453     0.0372     
H2       H      0.843354     0.522098     0.0281567    0.0372     
H2       H      0.159526     0.472299     0.27808      0.0372     
H2       H      0.156647    -0.0220993    0.778157     0.0372     
H2       H      0.227902     0.906646     0.721844     0.0372     
H2       H      0.185274     0.570892     0.222453     0.0372     
H2       H      0.343354     0.522098     0.721844     0.0372     
H2       H      0.340475     0.0276995    0.221921     0.0372     
H2       H      0.314727     0.929107     0.277548     0.0372     
H2       H      0.272099     0.593353     0.778157     0.0372     
H2       H      0.656647     0.977901     0.471844     0.0372     
H2       H      0.679108     0.0647258    0.0275477    0.0372     
H2       H      0.7223       0.409525     0.52808      0.0372     
H2       H      0.772099     0.593353     0.971844     0.0372     
H2       H      0.320893     0.935273     0.972453     0.0372     
H2       H      0.343354     0.022098     0.528157     0.0372     
H2       H      0.227902     0.406646     0.0281567    0.0372     
H2       H      0.277701     0.590473     0.471921     0.0372     
H2       H      0.727902     0.406646     0.221844     0.0372     
H2       H      0.685274     0.0708916    0.722453     0.0372     
H2       H      0.659526     0.972299     0.77808      0.0372     
H2       H      0.656647     0.477901     0.278157     0.0372     
H2       H      0.814727     0.429107     0.777548     0.0372     
H2       H      0.772099     0.0933527    0.278157     0.0372     
H2       H      0.843354     1.0221       0.221844     0.0372     
H2       H      0.840475     0.5277       0.721921     0.0372     
H2       H      0.26198      0.0961669    0.0301084    0.0372     
H2       H      0.21313      0.911909     0.469605     0.0372     
H2       H      0.338091     0.536869     0.969605     0.0372     
H2       H      0.306907     0.423157     0.531089     0.0372     
H2       H      0.78687      0.0880894    0.530396     0.0372     
H2       H      0.738021     0.903832     0.969893     0.0372     
H2       H      0.693094     0.576841     0.468912     0.0372     
H2       H      0.66191      0.463129     0.0303964    0.0372     
H2       H      0.346168     0.511979     0.280108     0.0372     
H2       H      0.338091     1.03687      0.780396     0.0372     
H2       H      0.28687      0.0880894    0.719605     0.0372     
H2       H      0.326842     0.443093     0.218912     0.0372     
H2       H      0.16191      0.463129     0.719605     0.0372     
H2       H      0.153833     0.98802      0.219893     0.0372     
H2       H      0.173159     0.0569059    0.281089     0.0372     
H2       H      0.21313      0.411909     0.780396     0.0372     
H2       H      0.838091     0.0368693    0.469605     0.0372     
H2       H      0.806907     0.923157     0.0310891    0.0372     
H2       H      0.76198      0.596167     0.530108     0.0372     
H2       H      0.71313      0.411909     0.969605     0.0372     
H2       H      0.193094     0.0768412    0.968912     0.0372     
H2       H      0.16191      0.963129     0.530396     0.0372     
H2       H      0.28687      0.588089     0.0303964    0.0372     
H2       H      0.238021     0.403832     0.469893     0.0372     
H2       H      0.78687      0.588089     0.219605     0.0372     
H2       H      0.826842     0.943093     0.718912     0.0372     
H2       H      0.846168     0.0119791    0.780108     0.0372     
H2       H      0.838091     0.536869     0.280396     0.0372     
H2       H      0.673159     0.556906     0.781089     0.0372     
H2       H      0.71313      0.911909     0.280396     0.0372     
H2       H      0.66191     -0.0368707    0.219605     0.0372     
H2       H      0.653833     0.48802      0.719893     0.0372     
H2       H      0.185274     0.0708916    0.0275477    0.0372     
H2       H      0.159526     0.972299     0.471921     0.0372     
H2       H      0.277701     0.590473     0.971921     0.0372     
H2       H      0.227902     0.406646     0.528157     0.0372     
H2       H      0.840475     0.0276995    0.52808      0.0372     
H2       H      0.814727     0.929107     0.972453     0.0372     
H2       H      0.772099     0.593353     0.471844     0.0372     
H2       H      0.7223       0.409525     0.0280795    0.0372     
H2       H      0.320893     0.435273     0.277548     0.0372     
H2       H      0.277701     0.0904733    0.77808      0.0372     
H2       H      0.340475     1.0277       0.721921     0.0372     
H2       H      0.343354     0.522098     0.221844     0.0372     
H2       H      0.2223       0.409525     0.721921     0.0372     
H2       H      0.179108     0.0647258    0.222453     0.0372     
H2       H      0.156647     0.977901     0.278157     0.0372     
H2       H      0.159526     0.472299     0.77808      0.0372     
H2       H      0.777701     0.0904733    0.471921     0.0372     
H2       H      0.727902     0.906646     0.0281567    0.0372     
H2       H      0.685274     0.570892     0.527548     0.0372     
H2       H      0.659526     0.472299     0.971921     0.0372     
H2       H      0.272099     0.0933527    0.971844     0.0372     
H2       H      0.2223       0.909525     0.52808      0.0372     
H2       H      0.340475     0.5277       0.0280795    0.0372     
H2       H      0.314727     0.429107     0.472453     0.0372     
H2       H      0.840475     0.5277       0.221921     0.0372     
H2       H      0.843354     0.022098     0.721844     0.0372     
H2       H      0.820893     0.935273     0.777548     0.0372     
H2       H      0.777701     0.590473     0.27808      0.0372     
H2       H      0.656647     0.477901     0.778157     0.0372     
H2       H      0.659526    -0.0277009    0.27808      0.0372     
H2       H      0.7223       0.909525     0.221921     0.0372     
H2       H      0.679108     0.564726     0.722453     0.0372     
Ha       H      0.943193     0.500384     0.0704619    0.1018     
Ha       H      0.0560435    0.500505     0.070465     0.1018     
Ha       H      0.943111     0.500248     0.181116     0.1018     
Ha       H      0.0561221    0.500538     0.181119     0.1018     
Ha       H      0.943879     0.499461     0.318882     0.1018     
Ha       H      0.0568901    0.49975      0.318885     0.1018     
Ha       H      0.943957     0.499494     0.429536     0.1018     
Ha       H      0.0568078    0.499615     0.429539     0.1018     
Ha       H      0.943111     0.000248294  0.568885     0.1018     
Ha       H      0.0561221    0.000537571  0.568882     0.1018     
Ha       H      0.943193     1.00038      0.679539     0.1018     
Ha       H      0.0560435    1.0005       0.679536     0.1018     
Ha       H      0.443111     0.500248     0.0688846    0.1018     
Ha       H      0.556122     0.500538     0.0688821    0.1018     
Ha       H      0.556043     0.500505     0.179536     0.1018     
Ha       H      0.443957    -0.00050608   0.429536     0.1018     
Ha       H      0.443879     0.999461     0.318882     0.1018     
Ha       H      0.556808    -0.000385422  0.429539     0.1018     
Ha       H      0.55689      0.99975      0.318885     0.1018     
Ha       H      0.443193     0.500384     0.179539     0.1018     
Ha       H      0.556808     0.499615     0.320462     0.1018     
Ha       H      0.443957     0.499494     0.320465     0.1018     
Ha       H      0.443879     0.499461     0.431119     0.1018     
Ha       H      0.55689      0.49975      0.431116     0.1018     
Ha       H      0.556043     1.0005       0.070465     0.1018     
Ha       H      0.443193     1.00038      0.0704619    0.1018     
Ha       H      0.443111     0.000248294  0.181116     0.1018     
Ha       H      0.556122     0.000537571  0.181119     0.1018     
Ha       H      0.443111     0.500248     0.568885     0.1018     
Ha       H      0.556122     0.500538     0.568882     0.1018     
Ha       H      0.443193     0.500384     0.679539     0.1018     
Ha       H      0.556043     0.500505     0.679536     0.1018     
Ha       H      0.443193     1.00038      0.570462     0.1018     
Ha       H      0.556043     1.0005       0.570465     0.1018     
Ha       H      0.443111     0.000248294  0.681116     0.1018     
Ha       H      0.556122     0.000537571  0.681119     0.1018     
Ha       H      0.443957     0.499494     0.820465     0.1018     
Ha       H      0.556808     0.499615     0.820462     0.1018     
Ha       H      0.443879     0.499461     0.931119     0.1018     
Ha       H      0.55689      0.49975      0.931116     0.1018     
Ha       H      0.443879     0.999461     0.818882     0.1018     
Ha       H      0.55689      0.99975      0.818885     0.1018     
Ha       H      0.443957    -0.00050608   0.929536     0.1018     
Ha       H      0.556808    -0.000385422  0.929539     0.1018     
Ha       H      0.943957    -0.00050608   0.320465     0.1018     
Ha       H      0.0568078   -0.000385422  0.320462     0.1018     
Ha       H      0.943879     0.999461     0.431119     0.1018     
Ha       H      0.0568901    0.99975      0.431116     0.1018     
Ha       H      0.943193     1.00038      0.179539     0.1018     
Ha       H      0.0560435    1.0005       0.179536     0.1018     
Ha       H      0.943111     0.000248294  0.0688846    0.1018     
Ha       H      0.0561221    0.000537571  0.0688821    0.1018     
Ha       H      0.943193     0.500384     0.570462     0.1018     
Ha       H      0.0560435    0.500505     0.570465     0.1018     
Ha       H      0.943111     0.500248     0.681116     0.1018     
Ha       H      0.0561221    0.500538     0.681119     0.1018     
Ha       H      0.943879     0.499461     0.818882     0.1018     
Ha       H      0.0568901    0.49975      0.818885     0.1018     
Ha       H      0.943957     0.499494     0.929536     0.1018     
Ha       H      0.0568078    0.499615     0.929539     0.1018     
Ha       H      0.943957    -0.00050608   0.820465     0.1018     
Ha       H      0.0568078   -0.000385422  0.820462     0.1018     
Ha       H      0.943879     0.999461     0.931119     0.1018     
Ha       H      0.0568901    0.99975      0.931116     0.1018     
Ha       H      0.750506     0.806042     0.929536     0.1018     
Ha       H      0.750385     0.693192     0.929539     0.1018     
Ha       H      0.750539     0.806121     0.818882     0.1018     
Ha       H      0.750249     0.69311      0.818885     0.1018     
Ha       H      0.250539     0.806121     0.931119     0.1018     
Ha       H      0.250249     0.69311      0.931116     0.1018     
Ha       H      0.250506     0.806042     0.820465     0.1018     
Ha       H      0.250385     0.693192     0.820462     0.1018     
Ha       H      0.749751     0.806889     0.681116     0.1018     
Ha       H      0.749462     0.693878     0.681119     0.1018     
Ha       H      0.749616     0.806807     0.570462     0.1018     
Ha       H      0.749495     0.693956     0.570465     0.1018     
Ha       H      0.249616     0.806807     0.679539     0.1018     
Ha       H      0.249495     0.693956     0.679536     0.1018     
Ha       H      0.249751     0.806889     0.568885     0.1018     
Ha       H      0.249462     0.693878     0.568882     0.1018     
Ha       H      0.750506     0.806042     0.429536     0.1018     
Ha       H      0.750385     0.693192     0.429539     0.1018     
Ha       H      0.750539     0.806121     0.318882     0.1018     
Ha       H      0.750249     0.69311      0.318885     0.1018     
Ha       H      0.250539     0.806121     0.431119     0.1018     
Ha       H      0.250249     0.69311      0.431116     0.1018     
Ha       H      0.250506     0.806042     0.320465     0.1018     
Ha       H      0.250385     0.693192     0.320462     0.1018     
Ha       H      0.749751     0.806889     0.181116     0.1018     
Ha       H      0.749462     0.693878     0.181119     0.1018     
Ha       H      0.749616     0.806807     0.0704619    0.1018     
Ha       H      0.749495     0.693956     0.070465     0.1018     
Ha       H      0.249616     0.806807     0.179539     0.1018     
Ha       H      0.249495     0.693956     0.179536     0.1018     
Ha       H      0.249751     0.806889     0.0688846    0.1018     
Ha       H      0.249462     0.693878     0.0688821    0.1018     
Ha       H      0.750539     0.306121     0.931119     0.1018     
Ha       H      0.750249     0.19311      0.931116     0.1018     
Ha       H      0.750506     0.306042     0.820465     0.1018     
Ha       H      0.750385     0.193192     0.820462     0.1018     
Ha       H      0.250506     0.306042     0.929536     0.1018     
Ha       H      0.250385     0.193192     0.929539     0.1018     
Ha       H      0.250539     0.306121     0.818882     0.1018     
Ha       H      0.250249     0.19311      0.818885     0.1018     
Ha       H      0.749616     0.306807     0.679539     0.1018     
Ha       H      0.749495     0.193956     0.679536     0.1018     
Ha       H      0.749751     0.306889     0.568885     0.1018     
Ha       H      0.749462     0.193878     0.568882     0.1018     
Ha       H      0.249751     0.306889     0.681116     0.1018     
Ha       H      0.249462     0.193878     0.681119     0.1018     
Ha       H      0.249616     0.306807     0.570462     0.1018     
Ha       H      0.249495     0.193956     0.570465     0.1018     
Ha       H      0.750539     0.306121     0.431119     0.1018     
Ha       H      0.750249     0.19311      0.431116     0.1018     
Ha       H      0.750506     0.306042     0.320465     0.1018     
Ha       H      0.750385     0.193192     0.320462     0.1018     
Ha       H      0.250506     0.306042     0.429536     0.1018     
Ha       H      0.250385     0.193192     0.429539     0.1018     
Ha       H      0.250539     0.306121     0.318882     0.1018     
Ha       H      0.250249     0.19311      0.318885     0.1018     
Ha       H      0.749616     0.306807     0.179539     0.1018     
Ha       H      0.749495     0.193956     0.179536     0.1018     
Ha       H      0.749751     0.306889     0.0688846    0.1018     
Ha       H      0.749462     0.193878     0.0688821    0.1018     
Ha       H      0.249751     0.306889     0.181116     0.1018     
Ha       H      0.249462     0.193878     0.181119     0.1018     
Ha       H      0.249616     0.306807     0.0704619    0.1018     
Ha       H      0.249495     0.193956     0.070465     0.1018     
C2       C      0.249763     0.881262     0.12428      0.7904     
C2       C      0.250238     0.118736     0.37428      0.7904     
C2       C      0.250571     0.380501     0.874273     0.7904     
C2       C      0.24943      0.619498     0.624273     0.7904     
C2       C      0.749763     0.881262     0.625721     0.7904     
C2       C      0.750238     0.118736     0.875721     0.7904     
C2       C      0.750571     0.380501     0.375728     0.7904     
C2       C      0.74943      0.619498     0.125728     0.7904     
C2       C      0.131264     0.499762     0.37428      0.7904     
C2       C      0.131264    -0.000238454  0.875721     0.7904     
C2       C      0.130502     1.00057      0.624273     0.7904     
C2       C      0.130502     0.50057      0.125728     0.7904     
C2       C      0.368737     0.500237     0.62428      0.7904     
C2       C      0.368737     0.000237067  0.125721     0.7904     
C2       C      0.369499     0.999429     0.374273     0.7904     
C2       C      0.369499     0.499429     0.875728     0.7904     
C2       C      0.750571     0.880501     0.374273     0.7904     
C2       C      0.74943      0.119498     0.124273     0.7904     
C2       C      0.749763     0.381262     0.62428      0.7904     
C2       C      0.750238     0.618736     0.87428      0.7904     
C2       C      0.250571     0.880501     0.875728     0.7904     
C2       C      0.24943      0.119498     0.625728     0.7904     
C2       C      0.249763     0.381262     0.125721     0.7904     
C2       C      0.250238     0.618736     0.375721     0.7904     
C2       C      0.630502     0.50057      0.124273     0.7904     
C2       C      0.630502     0.000569543  0.625728     0.7904     
C2       C      0.631264     0.999762     0.87428      0.7904     
C2       C      0.631264     0.499762     0.375721     0.7904     
C2       C      0.869499     0.499429     0.874273     0.7904     
C2       C      0.869499    -0.00057093   0.375728     0.7904     
C2       C      0.868737     1.00024      0.12428      0.7904     
C2       C      0.868737     0.500237     0.625721     0.7904     
Ca1      C      0.249695     0.813578     0.124207    -0.0503     
Ca1      C      0.250305     0.186421     0.374207    -0.0503     
Ca1      C      0.250518     0.312814     0.874204    -0.0503     
Ca1      C      0.249483     0.687185     0.624204    -0.0503     
Ca1      C      0.749695     0.813578     0.625794    -0.0503     
Ca1      C      0.750305     0.186421     0.875794    -0.0503     
Ca1      C      0.750518     0.312814     0.375796    -0.0503     
Ca1      C      0.749483     0.687185     0.125796    -0.0503     
Ca1      C      0.063579     0.499694     0.374207    -0.0503     
Ca1      C      0.063579    -0.000305679  0.875794    -0.0503     
Ca1      C      0.0628152    1.00052      0.624204    -0.0503     
Ca1      C      0.0628152    0.500517     0.125796    -0.0503     
Ca1      C      0.436422     0.500304     0.624207    -0.0503     
Ca1      C      0.436422     0.000304292  0.125794    -0.0503     
Ca1      C      0.437186     0.999482     0.374204    -0.0503     
Ca1      C      0.437186     0.499482     0.875796    -0.0503     
Ca1      C      0.750518     0.812814     0.374204    -0.0503     
Ca1      C      0.749483     0.187185     0.124204    -0.0503     
Ca1      C      0.749695     0.313578     0.624207    -0.0503     
Ca1      C      0.750305     0.686421     0.874207    -0.0503     
Ca1      C      0.250518     0.812814     0.875796    -0.0503     
Ca1      C      0.249483     0.187185     0.625796    -0.0503     
Ca1      C      0.249695     0.313578     0.125794    -0.0503     
Ca1      C      0.250305     0.686421     0.375794    -0.0503     
Ca1      C      0.562815     0.500517     0.124204    -0.0503     
Ca1      C      0.562815     0.000516844  0.625796    -0.0503     
Ca1      C      0.563579     0.999694     0.874207    -0.0503     
Ca1      C      0.563579     0.499694     0.375794    -0.0503     
Ca1      C      0.937186     0.499482     0.874204    -0.0503     
Ca1      C      0.937186    -0.000518231  0.375796    -0.0503     
Ca1      C      0.936422     1.0003       0.124207    -0.0503     
Ca1      C      0.936422     0.500304     0.625794    -0.0503     
Ca2      C      0.249601     0.781985     0.155248    -0.0955     
Ca2      C      0.250315     0.217998     0.343156    -0.0955     
Ca2      C      0.25049      0.281234     0.843155    -0.0955     
Ca2      C      0.249542     0.718778     0.655246    -0.0955     
Ca2      C      0.749686     0.782        0.656844    -0.0955     
Ca2      C      0.7504       0.218014     0.844753    -0.0955     
Ca2      C      0.750459     0.281221     0.344755    -0.0955     
Ca2      C      0.749511     0.718765     0.156846    -0.0955     
Ca2      C      0.031986     0.4996       0.405248    -0.0955     
Ca2      C      0.0320016    0.999685     0.906844    -0.0955     
Ca2      C      0.0312351    0.000488637  0.593155    -0.0955     
Ca2      C      0.031222     0.500458     0.0947546   -0.0955     
Ca2      C      0.467999     0.500314     0.593156    -0.0955     
Ca2      C      0.468015     1.0004       0.0947527   -0.0955     
Ca2      C      0.468779    -0.000459551  0.405246    -0.0955     
Ca2      C      0.468766     0.49951      0.906846    -0.0955     
Ca2      C      0.75049      0.781234     0.343155    -0.0955     
Ca2      C      0.749542     0.218778     0.155246    -0.0955     
Ca2      C      0.749601     0.281985     0.655248    -0.0955     
Ca2      C      0.750315     0.717998     0.843156    -0.0955     
Ca2      C      0.250459     0.781221     0.844755    -0.0955     
Ca2      C      0.249511     0.218765     0.656846    -0.0955     
Ca2      C      0.249686     0.282        0.156844    -0.0955     
Ca2      C      0.2504       0.718014     0.344753    -0.0955     
Ca2      C      0.531235     0.500489     0.093155    -0.0955     
Ca2      C      0.531222     1.00046      0.594755    -0.0955     
Ca2      C      0.531986    -0.000400339  0.905248    -0.0955     
Ca2      C      0.532002     0.499685     0.406844    -0.0955     
Ca2      C      0.968779     0.49954      0.905246    -0.0955     
Ca2      C      0.968766     0.99951      0.406846    -0.0955     
Ca2      C      0.967999     0.000313697  0.0931564   -0.0955     
Ca2      C      0.968015     0.500399     0.594753    -0.0955     
Ca2      C      0.249686     0.782        0.0931564   -0.0955     
Ca2      C      0.2504       0.218014     0.405248    -0.0955     
Ca2      C      0.250459     0.281221     0.905246    -0.0955     
Ca2      C      0.249511     0.718765     0.593155    -0.0955     
Ca2      C      0.749601     0.781985     0.594753    -0.0955     
Ca2      C      0.750315     0.217998     0.906844    -0.0955     
Ca2      C      0.75049      0.281234     0.406846    -0.0955     
Ca2      C      0.749542     0.718778     0.0947546   -0.0955     
Ca2      C      0.0320016    0.499685     0.343156    -0.0955     
Ca2      C      0.031986    -0.000400339  0.844753    -0.0955     
Ca2      C      0.031222     1.00046      0.655246    -0.0955     
Ca2      C      0.0312351    0.500489     0.156846    -0.0955     
Ca2      C      0.468015     0.500399     0.655248    -0.0955     
Ca2      C      0.467999     0.000313697  0.156844    -0.0955     
Ca2      C      0.468766     0.99951      0.343155    -0.0955     
Ca2      C      0.468779     0.49954      0.844755    -0.0955     
Ca2      C      0.750459     0.781221     0.405246    -0.0955     
Ca2      C      0.749511     0.218765     0.093155    -0.0955     
Ca2      C      0.749686     0.282        0.593156    -0.0955     
Ca2      C      0.7504       0.718014     0.905248    -0.0955     
Ca2      C      0.25049      0.781234     0.906846    -0.0955     
Ca2      C      0.249542     0.218778     0.594755    -0.0955     
Ca2      C      0.249601     0.281985     0.0947527   -0.0955     
Ca2      C      0.250315     0.717998     0.406844    -0.0955     
Ca2      C      0.531222     0.500458     0.155246    -0.0955     
Ca2      C      0.531235     0.000488637  0.656846    -0.0955     
Ca2      C      0.532002     0.999685     0.843156    -0.0955     
Ca2      C      0.531986     0.4996       0.344753    -0.0955     
Ca2      C      0.968766     0.49951      0.843155    -0.0955     
Ca2      C      0.968779    -0.000459551  0.344755    -0.0955     
Ca2      C      0.968015     1.0004       0.155248    -0.0955     
Ca2      C      0.967999     0.500314     0.656844    -0.0955     
C2       C      0.130502     0.000569543  0.124273     0.7904     
C2       C      0.131264     0.999762     0.375721     0.7904     
C2       C      0.131264     0.499762     0.87428      0.7904     
C2       C      0.130502     0.50057      0.625728     0.7904     
C2       C      0.868737     0.000237067  0.62428      0.7904     
C2       C      0.869499     0.999429     0.875728     0.7904     
C2       C      0.869499     0.499429     0.374273     0.7904     
C2       C      0.868737     0.500237     0.125721     0.7904     
C2       C      0.250571     0.380501     0.374273     0.7904     
C2       C      0.250238     0.118736     0.87428      0.7904     
C2       C      0.249763     0.881262     0.62428      0.7904     
C2       C      0.24943      0.619498     0.124273     0.7904     
C2       C      0.249763     0.381262     0.625721     0.7904     
C2       C      0.24943      0.119498     0.125728     0.7904     
C2       C      0.250571     0.880501     0.375728     0.7904     
C2       C      0.250238     0.618736     0.875721     0.7904     
C2       C      0.631264    -0.000238454  0.37428      0.7904     
C2       C      0.630502     1.00057      0.125728     0.7904     
C2       C      0.630502     0.50057      0.624273     0.7904     
C2       C      0.631264     0.499762     0.875721     0.7904     
C2       C      0.369499    -0.00057093   0.874273     0.7904     
C2       C      0.368737     1.00024      0.625721     0.7904     
C2       C      0.368737     0.500237     0.12428      0.7904     
C2       C      0.369499     0.499429     0.375728     0.7904     
C2       C      0.749763     0.381262     0.12428      0.7904     
C2       C      0.74943      0.119498     0.624273     0.7904     
C2       C      0.750571     0.880501     0.874273     0.7904     
C2       C      0.750238     0.618736     0.37428      0.7904     
C2       C      0.750571     0.380501     0.875728     0.7904     
C2       C      0.750238     0.118736     0.375721     0.7904     
C2       C      0.749763     0.881262     0.125721     0.7904     
C2       C      0.74943      0.619498     0.625728     0.7904     
Ca1      C      0.0628152    0.000516844  0.124204    -0.0503     
Ca1      C      0.063579     0.999694     0.375794    -0.0503     
Ca1      C      0.063579     0.499694     0.874207    -0.0503     
Ca1      C      0.0628152    0.500517     0.625796    -0.0503     
Ca1      C      0.936422     0.000304292  0.624207    -0.0503     
Ca1      C      0.937186     0.999482     0.875796    -0.0503     
Ca1      C      0.937186     0.499482     0.374204    -0.0503     
Ca1      C      0.936422     0.500304     0.125794    -0.0503     
Ca1      C      0.250518     0.312814     0.374204    -0.0503     
Ca1      C      0.250305     0.186421     0.874207    -0.0503     
Ca1      C      0.249695     0.813578     0.624207    -0.0503     
Ca1      C      0.249483     0.687185     0.124204    -0.0503     
Ca1      C      0.249695     0.313578     0.625794    -0.0503     
Ca1      C      0.249483     0.187185     0.125796    -0.0503     
Ca1      C      0.250518     0.812814     0.375796    -0.0503     
Ca1      C      0.250305     0.686421     0.875794    -0.0503     
Ca1      C      0.563579    -0.000305679  0.374207    -0.0503     
Ca1      C      0.562815     1.00052      0.125796    -0.0503     
Ca1      C      0.562815     0.500517     0.624204    -0.0503     
Ca1      C      0.563579     0.499694     0.875794    -0.0503     
Ca1      C      0.437186    -0.000518231  0.874204    -0.0503     
Ca1      C      0.436422     1.0003       0.625794    -0.0503     
Ca1      C      0.436422     0.500304     0.124207    -0.0503     
Ca1      C      0.437186     0.499482     0.375796    -0.0503     
Ca1      C      0.749695     0.313578     0.124207    -0.0503     
Ca1      C      0.749483     0.187185     0.624204    -0.0503     
Ca1      C      0.750518     0.812814     0.874204    -0.0503     
Ca1      C      0.750305     0.686421     0.374207    -0.0503     
Ca1      C      0.750518     0.312814     0.875796    -0.0503     
Ca1      C      0.750305     0.186421     0.375794    -0.0503     
Ca1      C      0.749695     0.813578     0.125794    -0.0503     
Ca1      C      0.749483     0.687185     0.625796    -0.0503     
Ca2      C      0.031222     1.00046      0.155246    -0.0955     
Ca2      C      0.031986    -0.000400339  0.344753    -0.0955     
Ca2      C      0.0320016    0.499685     0.843156    -0.0955     
Ca2      C      0.0312351    0.500489     0.656846    -0.0955     
Ca2      C      0.968015     1.0004       0.655248    -0.0955     
Ca2      C      0.968779    -0.000459551  0.844755    -0.0955     
Ca2      C      0.968766     0.49951      0.343155    -0.0955     
Ca2      C      0.967999     0.500314     0.156844    -0.0955     
Ca2      C      0.250459     0.281221     0.405246    -0.0955     
Ca2      C      0.2504       0.218014     0.905248    -0.0955     
Ca2      C      0.249686     0.782        0.593156    -0.0955     
Ca2      C      0.249511     0.718765     0.093155    -0.0955     
Ca2      C      0.249601     0.281985     0.594753    -0.0955     
Ca2      C      0.249542     0.218778     0.0947546   -0.0955     
Ca2      C      0.25049      0.781234     0.406846    -0.0955     
Ca2      C      0.250315     0.717998     0.906844    -0.0955     
Ca2      C      0.532002     0.999685     0.343156    -0.0955     
Ca2      C      0.531235     0.000488637  0.156846    -0.0955     
Ca2      C      0.531222     0.500458     0.655246    -0.0955     
Ca2      C      0.531986     0.4996       0.844753    -0.0955     
Ca2      C      0.468766     0.99951      0.843155    -0.0955     
Ca2      C      0.467999     0.000313697  0.656844    -0.0955     
Ca2      C      0.468015     0.500399     0.155248    -0.0955     
Ca2      C      0.468779     0.49954      0.344755    -0.0955     
Ca2      C      0.749686     0.282        0.0931564   -0.0955     
Ca2      C      0.749511     0.218765     0.593155    -0.0955     
Ca2      C      0.750459     0.781221     0.905246    -0.0955     
Ca2      C      0.7504       0.718014     0.405248    -0.0955     
Ca2      C      0.75049      0.281234     0.906846    -0.0955     
Ca2      C      0.750315     0.217998     0.406844    -0.0955     
Ca2      C      0.749601     0.781985     0.0947527   -0.0955     
Ca2      C      0.749542     0.718778     0.594755    -0.0955     
Ca2      C      0.0312351    0.000488637  0.093155    -0.0955     
Ca2      C      0.0320016    0.999685     0.406844    -0.0955     
Ca2      C      0.031986     0.4996       0.905248    -0.0955     
Ca2      C      0.031222     0.500458     0.594755    -0.0955     
Ca2      C      0.967999     0.000313697  0.593156    -0.0955     
Ca2      C      0.968766     0.99951      0.906846    -0.0955     
Ca2      C      0.968779     0.49954      0.405246    -0.0955     
Ca2      C      0.968015     0.500399     0.0947527   -0.0955     
Ca2      C      0.25049      0.281234     0.343155    -0.0955     
Ca2      C      0.250315     0.217998     0.843156    -0.0955     
Ca2      C      0.249601     0.781985     0.655248    -0.0955     
Ca2      C      0.249542     0.718778     0.155246    -0.0955     
Ca2      C      0.249686     0.282        0.656844    -0.0955     
Ca2      C      0.249511     0.218765     0.156846    -0.0955     
Ca2      C      0.250459     0.781221     0.344755    -0.0955     
Ca2      C      0.2504       0.718014     0.844753    -0.0955     
Ca2      C      0.531986    -0.000400339  0.405248    -0.0955     
Ca2      C      0.531222     1.00046      0.0947546   -0.0955     
Ca2      C      0.531235     0.500489     0.593155    -0.0955     
Ca2      C      0.532002     0.499685     0.906844    -0.0955     
Ca2      C      0.468779    -0.000459551  0.905246    -0.0955     
Ca2      C      0.468015     1.0004       0.594753    -0.0955     
Ca2      C      0.467999     0.500314     0.0931564   -0.0955     
Ca2      C      0.468766     0.49951      0.406846    -0.0955     
Ca2      C      0.749601     0.281985     0.155248    -0.0955     
Ca2      C      0.749542     0.218778     0.655246    -0.0955     
Ca2      C      0.75049      0.781234     0.843155    -0.0955     
Ca2      C      0.750315     0.717998     0.343156    -0.0955     
Ca2      C      0.750459     0.281221     0.844755    -0.0955     
Ca2      C      0.7504       0.218014     0.344753    -0.0955     
Ca2      C      0.749686     0.782        0.156844    -0.0955     
Ca2      C      0.749511     0.718765     0.656846    -0.0955     
C3       C      0.311778     0.986382     0.0200869   -0.0015     
C3       C      0.311151    -0.0180301    0.480476    -0.0015     
C3       C      0.26803      0.438849     0.980476    -0.0015     
C3       C      0.295343     0.542742     0.519829    -0.0015     
C3       C      0.68885      1.01803      0.519525    -0.0015     
C3       C      0.688222     0.013617     0.979914    -0.0015     
C3       C      0.704657     0.457257     0.480171    -0.0015     
C3       C      0.731971     0.56115      0.0195249   -0.0015     
C3       C      0.236383     0.561777     0.270087    -0.0015     
C3       C      0.26803      0.938849     0.769525    -0.0015     
C3       C      0.18885      0.0180287    0.730476    -0.0015     
C3       C      0.207258     0.454656     0.230171    -0.0015     
C3       C      0.231971     0.56115      0.730476    -0.0015     
C3       C      0.263618     0.938221     0.229914    -0.0015     
C3       C      0.292743     0.0453423    0.269829    -0.0015     
C3       C      0.311151     0.48197      0.769525    -0.0015     
C3       C      0.76803      0.938849     0.480476    -0.0015     
C3       C      0.795343     0.0427416    0.0198295   -0.0015     
C3       C      0.811778     0.486382     0.520087    -0.0015     
C3       C      0.811151     0.48197      0.980476    -0.0015     
C3       C      0.204657     0.957257     0.980171    -0.0015     
C3       C      0.231971     0.0611499    0.519525    -0.0015     
C3       C      0.18885      0.518029     0.0195249   -0.0015     
C3       C      0.188222     0.513617     0.479914    -0.0015     
C3       C      0.68885      0.518029     0.230476    -0.0015     
C3       C      0.707258     0.954656     0.730171    -0.0015     
C3       C      0.736383     0.0617773    0.770087    -0.0015     
C3       C      0.76803      0.438849     0.269525    -0.0015     
C3       C      0.792743     0.545342     0.769829    -0.0015     
C3       C      0.811151     0.98197      0.269525    -0.0015     
C3       C      0.731971     0.0611499    0.230476    -0.0015     
C3       C      0.763618     0.438221     0.729914    -0.0015     
C3       C      0.207258     0.954656     0.0198295   -0.0015     
C3       C      0.236383     0.0617773    0.479914    -0.0015     
C3       C      0.188222     0.513617     0.979914    -0.0015     
C3       C      0.18885      0.518029     0.519525    -0.0015     
C3       C      0.763618     0.938221     0.520087    -0.0015     
C3       C      0.792743     0.0453423    0.980171    -0.0015     
C3       C      0.811151     0.48197      0.480476    -0.0015     
C3       C      0.811778     0.486382     0.0200869   -0.0015     
C3       C      0.204657     0.457257     0.269829    -0.0015     
C3       C      0.188222     0.013617     0.770087    -0.0015     
C3       C      0.263618     0.938221     0.729914    -0.0015     
C3       C      0.231971     0.56115      0.230476    -0.0015     
C3       C      0.311778     0.486382     0.729914    -0.0015     
C3       C      0.295343     0.0427416    0.230171    -0.0015     
C3       C      0.26803      0.938849     0.269525    -0.0015     
C3       C      0.236383     0.561777     0.770087    -0.0015     
C3       C      0.688222     1.01362      0.479914    -0.0015     
C3       C      0.68885      0.0180287    0.0195249   -0.0015     
C3       C      0.707258     0.454656     0.519829    -0.0015     
C3       C      0.736383     0.561777     0.979914    -0.0015     
C3       C      0.311151     0.98197      0.980476    -0.0015     
C3       C      0.311778    -0.0136184    0.520087    -0.0015     
C3       C      0.263618     0.438221     0.0200869   -0.0015     
C3       C      0.292743     0.545342     0.480171    -0.0015     
C3       C      0.763618     0.438221     0.229914    -0.0015     
C3       C      0.731971     0.0611499    0.730476    -0.0015     
C3       C      0.704657     0.957257     0.769829    -0.0015     
C3       C      0.688222     0.513617     0.270087    -0.0015     
C3       C      0.76803      0.438849     0.769525    -0.0015     
C3       C      0.736383     0.0617773    0.270087    -0.0015     
C3       C      0.811778     0.986382     0.229914    -0.0015     
C3       C      0.795343     0.542742     0.730171    -0.0015     
C3       C      0.231971     0.0611499    0.0195249   -0.0015     
C3       C      0.204657     0.957257     0.480171    -0.0015     
C3       C      0.292743     0.545342     0.980171    -0.0015     
C3       C      0.263618     0.438221     0.520087    -0.0015     
C3       C      0.795343     0.0427416    0.519829    -0.0015     
C3       C      0.76803      0.938849     0.980476    -0.0015     
C3       C      0.736383     0.561777     0.479914    -0.0015     
C3       C      0.707258     0.454656     0.0198295   -0.0015     
C3       C      0.311151     0.48197      0.269525    -0.0015     
C3       C      0.292743     0.0453423    0.769829    -0.0015     
C3       C      0.295343     1.04274      0.730171    -0.0015     
C3       C      0.311778     0.486382     0.229914    -0.0015     
C3       C      0.207258     0.454656     0.730171    -0.0015     
C3       C      0.18885      0.0180287    0.230476    -0.0015     
C3       C      0.188222     1.01362      0.270087    -0.0015     
C3       C      0.204657     0.457257     0.769829    -0.0015     
C3       C      0.792743     0.0453423    0.480171    -0.0015     
C3       C      0.763618     0.938221     0.0200869   -0.0015     
C3       C      0.731971     0.56115      0.519525    -0.0015     
C3       C      0.704657     0.457257     0.980171    -0.0015     
C3       C      0.236383     0.0617773    0.979914    -0.0015     
C3       C      0.207258     0.954656     0.519829    -0.0015     
C3       C      0.295343     0.542742     0.0198295   -0.0015     
C3       C      0.26803      0.438849     0.480476    -0.0015     
C3       C      0.795343     0.542742     0.230171    -0.0015     
C3       C      0.811778    -0.0136184    0.729914    -0.0015     
C3       C      0.811151     0.98197      0.769525    -0.0015     
C3       C      0.792743     0.545342     0.269829    -0.0015     
C3       C      0.688222     0.513617     0.770087    -0.0015     
C3       C      0.704657    -0.042743     0.269829    -0.0015     
C3       C      0.707258     0.954656     0.230171    -0.0015     
C3       C      0.68885      0.518029     0.730476    -0.0015     
N3       N      0.250221     0.000933491  0.0325455    0.0415     
N3       N      0.250935     1.00022      0.467455     0.0415     
N3       N      0.249066     0.499779     0.532545     0.0415     
N3       N      0.749066    -0.000220748  0.532545     0.0415     
N3       N      0.74978      0.999065     0.967455     0.0415     
N3       N      0.750935     0.500219     0.467455     0.0415     
N3       N      0.250935     0.500219     0.282545     0.0415     
N3       N      0.249066     0.999779     0.717455     0.0415     
N3       N      0.250221     0.500933     0.217455     0.0415     
N3       N      0.250221     0.500933     0.717455     0.0415     
N3       N      0.24978      0.999065     0.282545     0.0415     
N3       N      0.250935     0.500219     0.782545     0.0415     
N3       N      0.74978     -0.000934877  0.467455     0.0415     
N3       N      0.750221     0.500933     0.532545     0.0415     
N3       N      0.750935     0.500219     0.967455     0.0415     
N3       N      0.250221     1.00093      0.532545     0.0415     
N3       N      0.249066     0.499779     0.0325455    0.0415     
N3       N      0.24978      0.499065     0.467455     0.0415     
N3       N      0.749066     0.499779     0.217455     0.0415     
N3       N      0.750221     0.000933491  0.717455     0.0415     
N3       N      0.74978      0.499065     0.282545     0.0415     
N3       N      0.74978      0.499065     0.782545     0.0415     
N3       N      0.750935     0.000219362  0.282545     0.0415     
N3       N      0.749066     0.499779     0.717455     0.0415     
N3       N      0.24978      0.499065     0.967455     0.0415     
N3       N      0.750221     0.500933     0.0325455    0.0415     
N3       N      0.24978     -0.000934877  0.782545     0.0415     
N3       N      0.249066    -0.000220748  0.217455     0.0415     
N3       N      0.749066     0.999779     0.0325455    0.0415     
N3       N      0.250935     0.000219362  0.967455     0.0415     
N3       N      0.750935     1.00022      0.782545     0.0415     
N3       N      0.750221     1.00093      0.217455     0.0415     
O1       O      0.250302     0.405474     0.902318    -0.7372     
O1       O      0.2492       0.594146     0.596337    -0.7372     
O1       O      0.750801     0.405853     0.403664    -0.7372     
O1       O      0.749698     0.594524     0.0976825   -0.7372     
O1       O      0.156624     0.500021     0.346347    -0.7372     
O1       O      0.155476     1.0003       0.652318    -0.7372     
O1       O      0.155854     0.5008       0.153664    -0.7372     
O1       O      0.34377      0.500512     0.652326    -0.7372     
O1       O      0.344525     0.499697     0.847682    -0.7372     
O1       O      0.750022     0.406622     0.596347    -0.7372     
O1       O      0.750513     0.593769     0.902326    -0.7372     
O1       O      0.249488     0.40623      0.0976752   -0.7372     
O1       O      0.249979     0.593376     0.403654    -0.7372     
O1       O      0.655476     0.500301     0.152318    -0.7372     
O1       O      0.656624     1.00002      0.846347    -0.7372     
O1       O      0.656231     0.499487     0.347675    -0.7372     
O1       O      0.844147     0.499199     0.846337    -0.7372     
O1       O      0.844525    -0.0003027    0.347682    -0.7372     
O1       O      0.84377      1.00051      0.152326    -0.7372     
O1       O      0.843377     0.499978     0.653654    -0.7372     
O1       O      0.844147     0.999199     0.903664    -0.7372     
O2       O      0.250801     0.405853     0.346337    -0.7372     
O1       O      0.249979     0.0933762    0.846347    -0.7372     
O2       O      0.249488     0.90623      0.652326    -0.7372     
O2       O      0.249698     0.594524     0.152318    -0.7372     
O2       O      0.250022     0.406622     0.653654    -0.7372     
O1       O      0.2492       0.0941458    0.153664    -0.7372     
O1       O      0.250302     0.905474     0.347682    -0.7372     
O2       O      0.250513     0.593769     0.847675    -0.7372     
O1       O      0.656231    -0.000513049  0.402326    -0.7372     
O1       O      0.655476     1.0003       0.0976825   -0.7372     
O2       O      0.655854     0.5008       0.596337    -0.7372     
O2       O      0.656624     0.500021     0.903654    -0.7372     
O1       O      0.34377      1.00051      0.597675    -0.7372     
O2       O      0.343377     0.499978     0.0963468   -0.7372     
O2       O      0.344147     0.499199     0.403664    -0.7372     
O2       O      0.749488     0.40623      0.152326    -0.7372     
O1       O      0.749698     0.0945242    0.652318    -0.7372     
O2       O      0.750801     0.905853     0.846337    -0.7372     
O2       O      0.749979     0.593376     0.346347    -0.7372     
O2       O      0.750302     0.405474     0.847682    -0.7372     
O2       O      0.750513     0.0937685    0.347675    -0.7372     
O2       O      0.750022     0.906622     0.153654    -0.7372     
O2       O      0.7492       0.594146     0.653664    -0.7372     
O2       O      0.344147     0.499199     0.903664    -0.7372     
O2       O      0.343377     0.499978     0.596347    -0.7372     
O1       O      0.656231     0.999487     0.902326    -0.7372     
O2       O      0.656624     0.500021     0.403654    -0.7372     
O2       O      0.655854     0.5008       0.0963374   -0.7372     
O2       O      0.250513     0.593769     0.347675    -0.7372     
O2       O      0.250022     0.406622     0.153654    -0.7372     
O2       O      0.249698     0.594524     0.652318    -0.7372     
O2       O      0.250801     0.405853     0.846337    -0.7372     
O1       O      0.844147    -0.00080122   0.403664    -0.7372     
O1       O      0.843377     0.999978     0.0963468   -0.7372     
O2       O      0.84377      0.500512     0.597675    -0.7372     
O2       O      0.844525     0.499697     0.902318    -0.7372     
O1       O      0.155854     1.0008       0.596337    -0.7372     
O2       O      0.155476     0.500301     0.0976825   -0.7372     
O2       O      0.156231     0.499487     0.402326    -0.7372     
O2       O      0.7492       0.594146     0.153664    -0.7372     
O2       O      0.750302     0.405474     0.347682    -0.7372     
O2       O      0.749979     0.593376     0.846347    -0.7372     
O2       O      0.749488     0.40623      0.652326    -0.7372     
O1       O      0.249698     0.0945242    0.0976825   -0.7372     
O1       O      0.250801     0.905853     0.403664    -0.7372     
O1       O      0.249979     0.593376     0.903654    -0.7372     
O1       O      0.249488     0.40623      0.597675    -0.7372     
O1       O      0.7492       0.0941458    0.596337    -0.7372     
O2       O      0.750302     0.905474     0.902318    -0.7372     
O1       O      0.750513     0.593769     0.402326    -0.7372     
O1       O      0.750022     0.406622     0.0963468   -0.7372     
O1       O      0.344525     0.499697     0.347682    -0.7372     
O1       O      0.343377     0.999978     0.653654    -0.7372     
O1       O      0.34377      0.500512     0.152326    -0.7372     
O2       O      0.749979     0.0933762    0.403654    -0.7372     
O2       O      0.749488     0.90623      0.0976752   -0.7372     
O1       O      0.749698     0.594524     0.597682    -0.7372     
O1       O      0.750801     0.405853     0.903664    -0.7372     
O1       O      0.250513     0.0937685    0.902326    -0.7372     
O2       O      0.250022     0.906622     0.596347    -0.7372     
O1       O      0.2492       0.594146     0.0963374   -0.7372     
O1       O      0.250302     0.405474     0.402318    -0.7372     
O1       O      0.844525     0.999697     0.847682    -0.7372     
O1       O      0.656231     0.499487     0.847675    -0.7372     
O1       O      0.656624     2.05384e-05  0.346347    -0.7372     
O1       O      0.655854     1.0008       0.153664    -0.7372     
O1       O      0.655476     0.500301     0.652318    -0.7372     
O1       O      0.250022     0.906622     0.0963468   -0.7372     
O1       O      0.250513     0.0937685    0.402326    -0.7372     
O1       O      0.749488     0.90623      0.597675    -0.7372     
O2       O      0.749979     0.0933762    0.903654    -0.7372     
O2       O      0.156231    -0.000513049  0.847675    -0.7372     
O2       O      0.343377    -2.19249e-05  0.153654    -0.7372     
O2       O      0.344147     0.999199     0.346337    -0.7372     
O2       O      0.750302     0.905474     0.402318    -0.7372     
O2       O      0.7492       0.0941458    0.0963374   -0.7372     
O1       O      0.250801     0.905853     0.903664    -0.7372     
O2       O      0.249698     0.0945242    0.597682    -0.7372     
O2       O      0.655854     0.000799833  0.653664    -0.7372     
O2       O      0.155854     0.000799833  0.0963374   -0.7372     
O2       O      0.156624     1.00002      0.403654    -0.7372     
O2       O      0.156231     0.499487     0.902326    -0.7372     
O2       O      0.155476     0.500301     0.597682    -0.7372     
O2       O      0.843377    -2.19249e-05  0.596347    -0.7372     
O2       O      0.844525     0.499697     0.402318    -0.7372     
O2       O      0.84377      0.500512     0.0976752   -0.7372     
O2       O      0.344525    -0.0003027    0.902318    -0.7372     
O2       O      0.34377      0.000511662  0.0976752   -0.7372     
O2       O      0.344525     0.999697     0.402318    -0.7372     
O2       O      0.655476     0.000301314  0.597682    -0.7372     
O1       O      0.250302     0.905474     0.847682    -0.7372     
O2       O      0.2492       0.0941458    0.653664    -0.7372     
O1       O      0.249488     0.90623      0.152326    -0.7372     
O1       O      0.249979     0.0933762    0.346347    -0.7372     
O2       O      0.156624     2.05384e-05  0.903654    -0.7372     
O1       O      0.750022     0.906622     0.653654    -0.7372     
O2       O      0.750513     0.0937685    0.847675    -0.7372     
O2       O      0.750801     0.905853     0.346337    -0.7372     
O2       O      0.749698     0.0945242    0.152318    -0.7372     
O2       O      0.344147    -0.00080122   0.846337    -0.7372     
O1       O      0.155854     0.5008       0.653664    -0.7372     
O2       O      0.155476     0.000301314  0.152318    -0.7372     
O2       O      0.156231     0.999487     0.347675    -0.7372     
O1       O      0.156624     0.500021     0.846347    -0.7372     
O1       O      0.843377     0.499978     0.153654    -0.7372     
O2       O      0.84377      0.000511662  0.652326    -0.7372     
O1       O      0.844147     0.499199     0.346337    -0.7372     
Zn       Zn     0.25072      0.499941     0.335729     1.1832     
Zn       Zn     0.249942     0.500719     0.164272     1.1832     
Zn       Zn     0.749942     0.500719     0.585729     1.1832     
Zn       Zn     0.75072      0.499941     0.914272     1.1832     
Zn       Zn     0.249281     0.500058     0.0857286    1.1832     
Zn       Zn     0.250059     0.499279     0.414272     1.1832     
Zn       Zn     0.750059     0.499279     0.835729     1.1832     
Zn       Zn     0.749281     0.500058     0.664272     1.1832     
Zn       Zn     0.249942     0.000719174  0.0857286    1.1832     
Zn       Zn     0.25072      0.999941     0.414272     1.1832     
Zn       Zn     0.250059     0.499279     0.914272     1.1832     
Zn       Zn     0.249281     0.500058     0.585729     1.1832     
Zn       Zn     0.749281     5.77244e-05  0.585729     1.1832     
Zn       Zn     0.750059     0.999279     0.914272     1.1832     
Zn       Zn     0.75072      0.499941     0.414272     1.1832     
Zn       Zn     0.749942     0.500719     0.0857286    1.1832     
Zn       Zn     0.250059    -0.000720561  0.835729     1.1832     
Zn       Zn     0.249281     1.00006      0.664272     1.1832     
Zn       Zn     0.249942     0.500719     0.664272     1.1832     
Zn       Zn     0.249281     5.77244e-05  0.164272     1.1832     
Zn       Zn     0.250059     0.999279     0.335729     1.1832     
Zn       Zn     0.25072      0.499941     0.835729     1.1832     
Zn       Zn     0.750059    -0.000720561  0.414272     1.1832     
Zn       Zn     0.749281     1.00006      0.0857286    1.1832     
Zn       Zn     0.25072     -5.9111e-05   0.914272     1.1832     
Zn       Zn     0.249942     1.00072      0.585729     1.1832     
Zn       Zn     0.749281     0.500058     0.164272     1.1832     
Zn       Zn     0.749942     0.000719174  0.664272     1.1832     
Zn       Zn     0.75072      0.999941     0.835729     1.1832     
Zn       Zn     0.750059     0.499279     0.335729     1.1832     
Zn       Zn     0.75072     -5.9111e-05   0.335729     1.1832     
Zn       Zn     0.749942     1.00072      0.164272     1.1832     


